381
 generated by VMD
 O         9.693357        1.861580       12.441290
 O        12.953327        4.492519       10.017467
 O        14.241943        5.406171       12.251682
 O        12.978030        4.503258       14.509835
 O        10.468714        0.819467       14.706667
 O        10.406658        5.468305       14.556791
 O        12.944830        1.737618       10.018070
 O        13.010018        1.770663       14.595762
 O         9.120868        4.534616       16.807079
 O         9.089046        4.588758       12.277677
 O        10.376197        5.442121       10.063555
 O        10.423992        0.665786        9.989519
 O        14.188437        0.837566       12.306758
 O        14.293522        0.843388       16.838303
 O        14.251387        5.423594       16.745131
 O         9.084857        1.784436       16.862251
 O         9.103325        9.055306        3.333919
 O        12.980547       11.803260        1.113892
 O        14.252722       12.712981        3.363509
 O        12.952287       11.769524        5.589877
 O        10.381003        8.161805        5.581803
 O        10.383302       12.704398        5.596286
 O        12.976449        9.065476        1.093256
 O        12.978401        9.036429        5.584351
 O         9.077807       11.811383        7.795097
 O         9.117880       11.794353        3.357706
 O        10.401723       12.734991        1.125977
 O        10.397100        8.173880        1.082453
 O        14.253651        8.146294        3.342887
 O        14.257177        8.142900        7.826978
 O        14.209089       12.688128        7.837579
 O         9.067594        9.066798        7.832984
 O         1.314916        9.077609        3.329122
 O         5.240413       11.805135        1.094787
 O         6.518487       12.691615        3.339987
 O         5.181797       11.771983        5.534718
 O         2.605930        8.150108        5.568042
 O         2.595445       12.719739        5.608607
 O         5.236089        9.070355        1.128125
 O         5.201517        9.035326        5.580557
 O         1.250848       11.791440        7.826520
 O         1.311449       11.819076        3.356452
 O         2.645202       12.683337        1.111301
 O         2.640067        8.164730        1.104633
 O         6.528906        8.137508        3.358728
 O         6.488581        8.145025        7.837838
 O         6.455073       12.715598        7.734749
 O         1.312831        9.048979        7.813981
 O         1.332810        1.754346        3.327938
 O         5.190142        4.504439        1.099349
 O         6.488101        5.399967        3.342987
 O         5.191817        4.515298        5.590899
 O         2.614024        0.868006        5.569881
 O         2.610024        5.419353        5.566185
 O         5.220632        1.763028        1.117211
 O         5.196527        1.781373        5.546263
 O         1.312772        4.545837        7.809798
 O         1.337364        4.494565        3.323262
 O         2.600148        5.418828        1.074500
 O         2.644864        0.830314        1.108380
 O         6.525983        0.848277        3.334715
 O         6.467998        0.869996        7.773606
 O         6.514278        5.412961        7.826412
 O         1.234540        1.828414        7.745701
 O         9.103794        1.784458        3.362846
 O        12.994064        4.515357        1.058126
 O        14.286860        5.409083        3.296472
 O        12.981219        4.504282        5.534712
 O        10.345192        0.851417        5.611763
 O        10.408648        5.417649        5.568964
 O        13.003088        1.778491        1.122000
 O        12.919495        1.767372        5.554241
 O         9.112278        4.482102        7.825784
 O         9.087628        4.525106        3.339786
 O        10.410889        5.436916        1.115212
 O        10.416024        0.871261        1.135673
 O        14.283241        0.853825        3.365126
 O        14.225229        0.843425        7.757748
 O        14.255271        5.413682        7.782870
 O         9.065042        1.733437        7.850691
 O         1.251822        1.753701       12.293220
 O         5.196087        4.532750       10.039755
 O         6.454834        5.418790       12.335891
 O         5.146996        4.569304       14.603804
 O         2.527551        0.823078       14.567746
 O         2.551668        5.408651       14.559529
 O         5.045813        1.792162        9.919114
 O         5.092033        1.824055       14.656716
 O         1.285739        4.484239       16.801455
 O         1.301343        4.506045       12.287754
 O         2.608685        5.430820       10.060104
 O         2.454050        0.858127       10.000077
 O         6.517527        0.837384       16.821398
 O         6.526153        5.425771       16.835222
 O         1.325647        1.752613       16.829275
 O         9.263518        9.214106       12.253192
 O        12.867540       11.790480       10.133787
 O        14.252783       12.713616       12.298833
 O        13.026702       11.819352       14.572432
 O        10.410118        8.278987       14.471703
 O        10.447508       12.785048       14.631021
 O        12.983509        9.060748       10.052503
 O        12.999175        9.085919       14.580341
 O         9.086464       11.826028       16.840620
 O         9.112008       11.656213       12.153639
 O        10.325816       12.641773       10.236771
 O        10.396317        8.232536       10.072445
 O        14.247974        8.162431       12.301399
 O        14.273843        8.156536       16.803238
 O        14.289865       12.721745       16.840425
 O         9.116280        9.079720       16.751898
 O         1.291805        9.072820       12.298438
 O         5.106063       11.875169        9.922949
 O         6.611436       12.153961       12.319586
 O         5.215992       11.723933       14.558092
 O         2.566148        8.116424       14.542731
 O         2.644835       12.685304       14.561841
 O         5.163406        9.105142       10.062017
 O         5.140070        8.985135       14.603834
 O         1.336960       11.781042       16.825470
 O         1.304479       11.820988       12.311339
 O         2.504376       12.752261       10.038935
 O         2.599561        8.163241       10.060624
 O         6.492188        8.219191       12.287357
 O         6.530413        8.174974       16.830595
 O         6.514334       12.729566       16.793917
 O         1.325868        9.037365       16.808472
 H         9.387347        2.758913       12.323999
 H         9.821745        1.475765       11.579280
 H        12.051476        4.829235       10.011336
 H        13.383477        4.820734        9.221033
 H        13.788939        5.107938       11.455290
 H        14.224812        6.367453       12.242838
 H        13.424626        4.782406       13.703980
 H        12.987025        3.539166       14.516946
 H        10.116643        1.207134       13.886521
 H         9.951791        1.173146       15.437733
 H        10.448276        6.425443       14.529942
 H        11.314101        5.145106       14.529041
 H        12.944315        2.700248       10.006110
 H        13.417419        1.452345        9.229542
 H        13.475411        1.452960       15.376240
 H        12.108685        1.435121       14.668644
 H         9.591991        4.865541       17.578489
 H         9.587850        4.862677       16.032320
 H         9.504583        4.898696       13.086011
 H         8.161592        4.837550       12.323451
 H        10.366559        6.400294       10.087627
 H         9.909247        5.144242       10.856213
 H         9.940851        1.041159        9.245382
 H        11.309831        1.045707        9.966378
 H        13.736156        1.173803       13.088413
 H        13.722446        1.173346       11.534860
 H        13.853733        1.183466       17.624722
 H        15.199053        1.173741       16.861506
 H        13.826672        5.093429       15.945350
 H        15.150150        5.075442       16.746302
 H         9.555872        1.499795       17.652105
 H         9.105982        2.746611       16.854959
 H         8.199992        8.719650        3.319661
 H         9.536377        8.731591        2.536927
 H        12.078775       12.140951        1.092368
 H        13.422972       12.145131        0.328894
 H        13.783301       12.368286        4.130009
 H        13.791349       12.385596        2.583917
 H        13.402386       12.068758        6.386997
 H        12.974727       10.806312        5.604152
 H         9.903976        8.486380        6.351069
 H         9.916284        8.490920        4.804459
 H         9.946829       12.379380        4.800073
 H        11.286466       12.368902        5.571005
 H        13.441399        8.765805        0.304469
 H        12.994045       10.028679        1.080142
 H        13.410549        8.707509        4.787577
 H        12.070697        8.715858        5.562872
 H         9.567206       12.141871        7.029768
 H         9.526182       12.131176        8.575577
 H         9.574719       12.105813        2.568753
 H         9.127595       10.831642        3.325950
 H         9.927060       12.443264        0.341395
 H        10.392982       13.698846        1.115649
 H         9.972263        8.495200        0.281513
 H        11.304303        8.499583        1.066654
 H        14.261973        7.183247        3.309026
 H        13.803671        8.446973        2.546422
 H        14.244340        7.178991        7.798893
 H        13.804116        8.443735        7.031326
 H        15.115121       12.356884        7.862744
 H        13.774557       12.380474        8.635702
 H         9.036287       10.027895        7.803807
 H         8.154575        8.756602        7.834894
 H         1.288534       10.040479        3.345222
 H         0.401261        8.774814        3.332251
 H         4.331639       12.125645        1.085657
 H         5.664200       12.142831        0.298789
 H         7.425361       12.369212        3.325529
 H         6.095568       12.372420        2.535298
 H         5.643847       12.073086        4.744149
 H         5.199688       10.809062        5.522493
 H         2.153865        8.456368        4.774916
 H         2.596305        7.186595        5.540731
 H         3.492067       12.370825        5.613366
 H         2.156621       12.386216        6.397929
 H         5.694881        8.766492        1.918473
 H         5.255657       10.033353        1.142342
 H         5.626688        8.713071        6.381901
 H         4.293943        8.711943        5.595150
 H         1.285128       10.829322        7.845248
 H         1.695226       12.106261        8.622850
 H         0.408182       12.152395        3.374713
 H         1.744134       12.147672        4.151603
 H         2.172291       12.352826        0.339615
 H         2.168426       12.365221        1.884762
 H         3.545716        8.489377        1.140214
 H         2.192156        8.502544        1.887397
 H         6.060863        8.429383        4.148345
 H         6.502919        7.174010        3.365144
 H         6.490624        7.180365        7.858082
 H         6.019194        8.442012        8.623003
 H         7.359486       12.393709        7.727619
 H         6.026553       12.374818        6.939746
 H         0.409391        8.716551        7.793318
 H         1.746433        8.725736        7.016659
 H         0.425897        1.431919        3.363513
 H         1.772130        1.427899        4.121256
 H         4.287225        4.836578        1.061598
 H         5.641764        4.831300        0.313694
 H         6.011176        5.078421        2.570080
 H         6.018009        5.074572        4.118387
 H         5.662292        4.808393        6.378469
 H         5.207798        3.551636        5.599769
 H         3.528604        1.171920        5.567720
 H         2.641034       14.508471        5.591946
 H         3.516271        5.093300        5.598478
 H         2.173759        5.104408        6.365777
 H         4.308359        1.454125        1.111333
 H         5.186885        2.725477        1.105807
 H         5.673418        1.452011        4.777211
 H         5.664311        1.451248        6.322386
 H         1.301588        3.581781        7.815919
 H         1.769399        4.827473        8.609872
 H         1.787206        4.793217        4.121110
 H         1.350469        3.531320        3.341950
 H         2.158727        5.115381        1.875093
 H         2.599566        6.380982        1.104913
 H         2.174668        1.129894        1.894139
 H         2.635611       14.470079        1.130266
 H         6.065156        1.152230        2.544352
 H         6.510494       14.488734        3.313699
 H         5.972178        1.164460        8.546969
 H         6.447639       14.511322        7.785422
 H         6.076261        5.080193        8.619346
 H         7.416487        5.078551        7.845995
 H         1.705454        1.486000        6.979204
 H         0.339297        1.475538        7.708519
 H         8.201827        1.446030        3.360400
 H         9.518489        1.451951        4.166177
 H        13.407928        4.840084        0.250908
 H        12.089659        4.846087        1.062634
 H        15.190755        5.076041        3.288326
 H        13.861176        5.085038        2.495319
 H        13.415557        4.827475        4.738292
 H        12.081270        4.848971        5.522287
 H         9.885820        1.139412        6.409304
 H        10.352908       14.491516        5.623530
 H         9.933028        5.121226        4.785140
 H        10.383548        6.379694        5.558265
 H        13.016730        2.741480        1.122704
 H        13.461923        1.485607        1.916231
 H        11.999566        1.482081        5.566866
 H        12.917442        2.730847        5.547716
 H         9.580381        4.809554        7.051909
 H         9.573798        4.825456        8.597776
 H         9.076360        3.561713        3.347958
 H         8.167318        4.809534        3.341936
 H         9.942944        5.132469        1.900083
 H        10.394093        6.399152        1.134701
 H        11.321159        1.200459        1.151414
 H         9.983521        1.200283        1.930932
 H        13.797050        1.152114        4.141160
 H        14.258864       14.493337        3.376236
 H        14.211877       14.484221        7.754928
 H        13.747887        1.138719        6.974236
 H        15.166600        5.099303        7.778193
 H        13.838270        5.079320        6.981555
 H         8.141786        1.457189        7.847034
 H         9.065357        2.696255        7.857468
 H         0.332376        1.471933       12.302837
 H         1.250710        2.716047       12.299544
 H         5.642219        4.784736       10.854465
 H         5.155557        3.569870       10.030954
 H         5.994534        5.121528       13.128125
 H         6.438542        6.376478       12.347241
 H         5.629884        4.853844       15.385586
 H         5.145605        3.605994       14.623915
 H         3.425357        1.171014       14.566096
 H         2.110295        1.144435       13.761733
 H         3.465074        5.099864       14.587438
 H         2.122464        5.066469       15.351220
 H         4.137933        1.465939        9.957445
 H         5.447771        1.485945       10.738329
 H         5.630723        1.453219       15.364602
 H         5.482613        1.525952       13.831337
 H         1.746184        4.799280       17.586411
 H         1.316049        3.521385       16.829491
 H         1.722866        4.820296       13.094269
 H         0.399408        4.841312       12.294186
 H         3.515756        5.105156       10.074769
 H         2.177839        5.090099       10.851678
 H         2.026234        1.196803       10.794177
 H         1.984392        1.215695        9.240540
 H         7.417756        1.180150       16.840158
 H         6.079301        1.171954       17.610310
 H         6.558464        6.387024       16.842272
 H         7.439120        5.119565       16.820616
 H         1.762533        1.422138       16.035152
 H         1.814529        1.410608       17.584803
 H         9.692136        8.817970       11.472133
 H         9.693512        8.860703       13.053089
 H        13.371419       12.094930       10.899026
 H        12.934835       10.828595       10.120054
 H        14.259275       13.678487       12.296860
 H        15.173725       12.427651       12.303244
 H        13.452549       12.150896       13.773316
 H        12.133121       12.172185       14.577775
 H        11.328085        8.569973       14.547316
 H         9.961948        8.562985       15.277368
 H         9.995268       12.529363       13.838898
 H        10.438915       13.760288       14.650648
 H        13.457095        8.728799        9.279803
 H        13.443890        8.726552       10.831244
 H        13.455534        8.772282       15.370348
 H        13.031065       10.048379       14.602596
 H         9.537163       12.175712       16.068115
 H         8.182618       12.161959       16.810810
 H         9.591702       12.086959       11.349121
 H         9.216041       10.620850       12.184398
 H        10.350290       13.616904       10.165496
 H        11.248557       12.336436       10.203028
 H        11.317273        8.517042       10.015614
 H         9.950890        8.529342        9.269707
 H        13.828203        8.484608       13.104994
 H        15.155373        8.487933       12.316360
 H        14.282455        7.192525       16.783581
 H        15.195056        8.439779       16.809078
 H        14.292465       13.686456       16.825266
 H        13.852446       12.434293       16.033587
 H         9.081379       10.041031       16.792553
 H         8.202732        8.773065       16.774542
 H         1.753592        8.773459       11.507928
 H         1.313514       10.035804       12.284493
 H         5.585311       12.193709        9.147107
 H         5.555715       12.228920       10.679316
 H         6.110876       12.043968       13.150716
 H         8.156036       11.883905       12.204093
 H         5.136558       10.765348       14.621231
 H         4.317459       12.075842       14.537668
 H         2.112388        8.430042       13.753870
 H         2.532794        7.151546       14.524988
 H         2.186643       12.394180       15.356229
 H         2.615506       13.649246       14.566362
 H         4.253537        8.783647       10.066286
 H         5.115046       10.063541       10.007948
 H         5.581187        8.693888       13.802809
 H         4.235283        8.650863       14.562667
 H         1.308755       10.818712       16.816236
 H         0.424711       12.088227       16.831535
 H         1.787694       12.137110       13.081956
 H         1.759072       12.167265       11.534793
 H         2.495878       13.718654       10.026599
 H         3.426902       12.488307        9.998379
 H         2.144119        8.448202        9.260953
 H         2.596404        7.198699       10.050836
 H         6.047837        8.543860       11.495068
 H         7.394235        8.523449       12.245122
 H         6.019464        8.460498       16.067190
 H         6.067157        8.497408       17.611715
 H         6.499692       13.695587       16.775539
 H         6.054482       12.423924       16.008410
 H         1.810473        8.718390       17.577520
 H         1.781192        8.704692       16.027834
