381
 generated by VMD
 O         9.102325        1.739795       12.315376
 O        12.983118        4.507712       10.164268
 O        14.273606        5.456257       12.347844
 O        12.980180        4.491135       14.543280
 O        10.387343        0.844553       14.558059
 O        10.400970        5.407171       14.575029
 O        13.002491        1.748283       10.083599
 O        12.967520        1.762764       14.563077
 O         9.068624        4.520282       16.802624
 O         9.073938        4.478951       12.341293
 O        10.360770        5.408827       10.098936
 O        10.400777        0.837264       10.067397
 O        14.288270        0.863882       12.326086
 O        14.274089        0.889603       16.812338
 O        14.176127        5.310687       16.817322
 O         9.105383        1.771885       16.791882
 O         9.111888        9.058908        3.316310
 O        12.967502       11.869205        1.072392
 O        14.244810       12.769403        3.336798
 O        12.968276       11.810227        5.587639
 O        10.367372        8.193629        5.597485
 O        10.358616       12.682843        5.571954
 O        12.966554        9.137822        1.077352
 O        12.998179        9.070575        5.583940
 O         9.069187       11.822803        7.844886
 O         9.075701       11.796652        3.317138
 O        10.365895       12.726932        1.086229
 O        10.441301        8.115549        1.088486
 O        14.338367        8.302299        3.290486
 O        14.281902        8.180406        7.847151
 O        14.288896       12.648945        7.851313
 O         9.067561        9.090021        7.849091
 O         1.434947        9.161548        3.302822
 O         5.218504       11.812748        1.096219
 O         6.490736       12.717170        3.345344
 O         5.203125       11.791087        5.589504
 O         2.645820        8.173613        5.587866
 O         2.623313       12.735971        5.611508
 O         5.259106        9.076811        1.091641
 O         5.222103        9.061331        5.558879
 O         1.354036       11.787350        7.844939
 O         1.340855       11.918661        3.337706
 O         2.636740       12.731800        1.081177
 O         2.664973        8.169312        1.065881
 O         6.527603        8.135039        3.331392
 O         6.476958        8.166036        7.822427
 O         6.474640       12.698378        7.834254
 O         1.348238        9.059426        7.847138
 O         1.315696        1.757449        3.281533
 O         5.288002        4.473933        1.073050
 O         6.523212        5.395683        3.334004
 O         5.223843        4.483349        5.577631
 O         2.611888        0.861781        5.536632
 O         2.632375        5.419103        5.573837
 O         5.218782        1.727762        1.055116
 O         5.205327        1.736608        5.579835
 O         1.361839        4.495276        7.826080
 O         1.451335        4.493032        3.249152
 O         2.703856        5.421796        0.984247
 O         2.613497        0.868844        1.050070
 O         6.497593        0.862384        3.314156
 O         6.492465        0.830847        7.818695
 O         6.435969        5.421509        7.862901
 O         1.339305        1.745027        7.800076
 O         9.094887        1.795571        3.324842
 O        12.449964        4.149522        0.269750
 O        12.604722        4.270097        6.245442
 O        10.354755        0.824345        5.563160
 O        10.251028        5.484933        5.620413
 O        12.889667        1.823591        1.115161
 O        12.975608        1.639679        5.638062
 O         9.005246        4.498736        7.869025
 O         9.128560        4.550471        3.322865
 O        10.439282        5.419938        1.122421
 O        10.363706        0.868165        1.102458
 O        14.199191        0.914220        3.288050
 O        14.297017        0.766100        7.851774
 O        14.325590        5.441969        7.977712
 O         9.078104        1.749454        7.826175
 O         1.327022        1.785149       12.330115
 O         5.184115        4.473846       10.092028
 O         6.475668        5.401353       12.307376
 O         5.165811        4.520294       14.545992
 O         2.632613        0.875068       14.567801
 O         2.582356        5.447047       14.559042
 O         5.207974        1.731008       10.058860
 O         5.235240        1.772850       14.545315
 O         1.252265        4.552048       16.799894
 O         1.311119        4.522429       12.320988
 O         2.605897        5.393642       10.081634
 O         2.607917        0.854377       10.067204
 O         6.515390        0.850836       12.293013
 O         6.521407        0.825446       16.761541
 O         6.508629        5.407820       16.749691
 O         1.289375        1.816913       16.773115
 O         9.070141        9.056307       12.312554
 O        12.968143       11.780579       10.092529
 O        14.274748       12.729976       12.309332
 O        12.990609       11.816887       14.550364
 O        10.389897        8.147187       14.538566
 O        10.397348       12.707893       14.548968
 O        12.972695        9.048100       10.090135
 O        12.972839        9.080455       14.565928
 O         9.101664       11.787885       16.785971
 O         9.074318       11.796861       12.325566
 O        10.383862       12.697615       10.087627
 O        10.380805        8.154167       10.080181
 O        14.283176        8.177932       12.340572
 O        14.233282        8.148278       16.824638
 O        14.286935       12.748104       16.767630
 O         9.122022        9.039615       16.804287
 O         1.328311        9.079261       12.338100
 O         5.196540       11.781032       10.084130
 O         6.482100       12.702167       12.322214
 O         5.177063       11.782307       14.565901
 O         2.612349        8.186687       14.571378
 O         2.610536       12.733481       14.582752
 O         5.175886        9.038319       10.073794
 O         5.216454        9.043443       14.573401
 O         1.325886       11.801222       16.811304
 O         1.327245       11.825768       12.338002
 O         2.622400       12.707103       10.098084
 O         2.592565        8.125268       10.098213
 O         6.486037        8.142689       12.310965
 O         6.524066        8.136481       16.806974
 O         6.509861       12.686636       16.784956
 O         1.313809        9.057389       16.815077
 H         8.195260        1.415622       12.283830
 H         9.541055        1.418406       11.520617
 H        12.077422        4.831141       10.156479
 H        13.399339        4.853863       10.962209
 H        13.820598        5.144588       13.138283
 H        14.265766        6.420107       12.374921
 H        12.951850        3.527141       14.537777
 H        12.065515        4.795676       14.560205
 H        10.377831       14.483168       14.539250
 H         9.932903        1.137996       13.760324
 H        10.388638        6.370735       14.572152
 H         9.932936        5.126634       15.367934
 H        13.004435        2.710006       10.115406
 H        13.455727        1.453341       10.880856
 H        12.066656        1.420820       14.573753
 H        13.397811        1.444037       15.362836
 H         9.476638        4.855592       17.602438
 H         8.157868        4.841235       16.794798
 H         9.099662        3.516248       12.355492
 H         9.536855        4.782245       13.128254
 H         9.893132        5.080225       10.873837
 H         9.883303        5.080861        9.330934
 H        11.315125        1.138136       10.070941
 H        10.424800       14.476505       10.073249
 H        13.848093        1.185193       13.119303
 H        15.192549        1.196473       12.351388
 H        15.174984        1.237040       16.820677
 H        13.844171        1.200209       17.610367
 H        15.106013        5.043691       16.862736
 H        13.834069        5.034197       15.955456
 H         9.563310        1.468074       16.000261
 H         9.111965        2.733923       16.768908
 H         9.585219        8.753764        2.536227
 H         9.109713       10.021546        3.284213
 H        13.405693       12.190309        0.278109
 H        12.059361       12.187551        1.047726
 H        13.787228       12.432559        2.559720
 H        13.784449       12.418271        4.105749
 H        13.434501       12.091964        6.381156
 H        12.987040       10.846712        5.592509
 H         9.899980        8.534917        6.366994
 H         9.907950        8.519497        4.816563
 H        10.376563       13.645187        5.564199
 H        11.276326       12.389766        5.583536
 H        12.971302       10.100739        1.084953
 H        13.456355        8.856050        1.859442
 H        13.444307        8.760564        4.788527
 H        12.094448        8.745285        5.548939
 H         9.504547       12.136893        7.045674
 H         8.161330       12.143970        7.816803
 H         9.512059       12.110091        4.116644
 H         8.170111       12.124046        3.346767
 H         9.911104       12.412807        1.875576
 H        10.339522       13.688136        1.118578
 H         9.998265        8.442161        0.297793
 H        11.334599        8.481751        1.078910
 H        14.385481        7.345362        3.186810
 H        15.258776        8.591286        3.291117
 H        13.834446        8.462845        7.042254
 H        14.287062        7.218698        7.842503
 H        15.196936       12.327308        7.874633
 H        13.849855       12.317804        8.641770
 H         9.532354        8.782259        8.633744
 H         9.079165       10.052816        7.877501
 H         1.433949       10.122044        3.341681
 H         1.849185        8.842200        4.109737
 H         4.312196       12.138865        1.071305
 H         5.653194       12.131851        0.298369
 H         6.485437       13.679669        3.319955
 H         6.038607       12.420674        2.547672
 H         5.219032       10.827978        5.552548
 H         5.653327       12.104692        4.798218
 H         2.183895        8.460818        6.381393
 H         2.613164        7.211168        5.584259
 H         3.523078       12.392767        5.615887
 H         2.193085       12.396470        6.403766
 H         5.703842        8.770557        1.888942
 H         5.256791       10.039503        1.120072
 H         5.655129        8.720176        4.769582
 H         4.314926        8.733590        5.547089
 H         1.373633       10.823611        7.860779
 H         1.801089       12.088650        8.642755
 H         1.762097       12.229703        4.145564
 H         0.427442       12.219414        3.359575
 H         2.178849       12.460145        1.884901
 H         2.621270       13.694898        1.074300
 H         2.235445        8.501002        1.862493
 H         3.566651        8.504173        1.084796
 H         6.541538        7.171982        3.330678
 H         7.444373        8.428431        3.329463
 H         6.056731        8.488608        7.017375
 H         7.378964        8.502536        7.819000
 H         6.009882       12.358294        7.061464
 H         6.009823       12.365640        8.609416
 H         1.765926        8.715926        8.643960
 H         0.437544        8.746921        7.855774
 H         1.329500        2.722103        3.268908
 H         0.390185        1.498592        3.277868
 H         5.268950        3.511900        1.043949
 H         5.731396        4.769732        0.271624
 H         6.050196        5.064408        4.104924
 H         6.065699        5.059788        2.555336
 H         5.228518        3.521350        5.609280
 H         5.654984        4.792689        6.380379
 H         2.603248       14.500534        5.534957
 H         2.149314        1.151869        4.743207
 H         3.535372        5.087642        5.557016
 H         2.215656        5.110359        4.762630
 H         5.648062        1.385296        0.264344
 H         4.306503        1.418776        1.036268
 H         4.294314        1.424526        5.544399
 H         5.636596        1.424543        4.777825
 H         1.792632        4.804636        7.020814
 H         1.362523        3.533367        7.787819
 H         0.566988        4.872372        3.200863
 H         1.891869        4.819386        2.455080
 H         3.619487        5.128980        1.000702
 H         2.706799        6.383718        1.030588
 H         2.139312        1.212881        0.286976
 H         2.145302        1.190046        1.829632
 H         6.063968        1.179759        2.514375
 H         7.396163        1.204367        3.298399
 H         6.473657       14.469668        7.803446
 H         6.036469        1.128143        7.023438
 H         6.463812        6.384328        7.851241
 H         7.349801        5.118336        7.875073
 H         0.442864        1.396135        7.786234
 H         1.772018        1.427122        6.999990
 H         9.541900        1.476846        4.116301
 H         9.121021        2.757175        3.358266
 H        13.206437        4.647532       -0.165880
 H        12.691026        3.289830        0.718249
 H        13.255111        4.704793        6.816406
 H        11.130924        5.150853        5.770881
 H         9.927165        1.148283        6.362932
 H        11.273926        1.106763        5.607114
 H        10.309311        6.448102        5.613875
 H         9.530892        4.886650        4.131245
 H        13.354949        1.554801        1.921715
 H        12.007750        1.424852        1.140672
 H        12.911555        2.579393        5.787441
 H        13.447935        1.292756        6.404307
 H         9.036070        3.537056        7.826995
 H         9.415997        4.829367        7.064893
 H        10.001726        5.130399        1.935567
 H         8.211310        4.848917        3.332083
 H        10.472312        6.388184        1.141478
 H        11.739430        4.694813        0.709279
 H         9.889678        1.205868        1.871715
 H         9.901086        1.190982        0.320666
 H        14.202128       14.552471        3.303469
 H        13.784010        1.193089        4.109532
 H        13.846346        1.086008        8.639567
 H        14.289092       14.404888        7.891975
 H        13.930778        5.129027        8.798672
 H        15.225080        5.099992        7.936142
 H         8.176545        1.410612        7.845648
 H         9.518326        1.420694        8.616537
 H         1.798469        1.483570       13.113737
 H         1.335505        2.748101       12.351647
 H         5.201740        3.511580       10.055553
 H         5.622874        4.793012        9.295125
 H         6.046708        5.057609       11.515377
 H         7.377962        5.066847       12.303528
 H         5.595852        4.850025       13.749606
 H         4.261237        4.851698       14.534727
 H         3.551636        1.161310       14.564165
 H         2.642935       14.513782       14.578635
 H         2.130378        5.152629       13.761208
 H         2.580164        6.410161       14.542308
 H         4.299456        1.411820       10.040711
 H         5.636335        1.401574        9.261077
 H         5.220805        2.735619       14.527200
 H         5.682582        1.483063       13.743394
 H         1.712600        4.886295       16.022932
 H         1.755187        4.864048       17.563343
 H         0.409001        4.858739       12.303100
 H         1.744406        4.834015       11.518465
 H         3.510000        5.060836       10.079225
 H         2.192044        5.067188        9.274441
 H         2.144185        1.178134        9.287659
 H         2.144287        1.199950       10.836349
 H         6.049407        1.139971       11.500549
 H         6.488857       14.490286       12.291513
 H         7.420412        1.168631       16.756884
 H         6.091200        1.169981       15.971090
 H         6.028015        5.117975       15.966070
 H         6.489166        6.371420       16.751680
 H         1.763809        1.516323       15.990877
 H         1.302740        2.780589       16.760580
 H         8.167121        8.721102       12.292137
 H         9.505808        8.732138       11.517003
 H        12.052364       12.078295       10.084415
 H        12.945900       10.817308       10.099916
 H        13.814223       12.420293       11.522161
 H        14.264132       13.692551       12.283302
 H        13.459855       12.160236       15.318726
 H        13.457108       12.144590       13.773892
 H        11.289380        8.490799       14.520635
 H         9.946259        8.474845       13.748738
 H         9.952734       12.371911       13.763192
 H        11.303870       12.383485       14.520146
 H        13.453640        8.728666       10.860563
 H        13.446266        8.736253        9.310965
 H        13.415028        8.771617       15.363742
 H        12.992847       10.043438       14.589967
 H         9.573841       12.118645       16.014576
 H         9.561328       12.126591       17.561365
 H         9.045228       10.834036       12.323381
 H         8.159868       12.099789       12.330593
 H         9.905440       12.385277        9.312284
 H         9.906563       12.374363       10.859171
 H        11.299574        8.443106       10.084841
 H        10.393739        7.191488       10.083109
 H        15.188216        8.508755       12.363291
 H        13.843704        8.516998       13.128109
 H        14.207030        7.192957       16.879538
 H        13.791265        8.478684       17.616676
 H        14.322070       13.709423       16.779697
 H        15.197573       12.433512       16.792219
 H         9.566236        8.745852       16.001974
 H         9.126205       10.002429       16.781862
 H         1.788310        8.790531       13.134573
 H         1.341523       10.042173       12.347195
 H         4.283452       12.088676       10.089111
 H         5.165722       10.818333       10.079100
 H         6.008001       12.374761       13.093592
 H         6.016672       12.366048       11.548359
 H         5.652157       12.081799       15.348450
 H         5.199324       10.819492       14.583745
 H         3.522768        8.498942       14.600175
 H         2.176075        8.506430       15.369119
 H         2.177570       12.393525       15.373688
 H         3.508763       12.384754       14.591864
 H         4.273423        8.702031       10.059161
 H         5.606202        8.724673        9.271084
 H         5.695354        8.713212       15.340823
 H         5.674619        8.714539       13.792872
 H         1.785104       12.097961       17.604921
 H         1.324712       10.837999       16.833649
 H         1.754378       12.157847       13.135132
 H         0.420957       12.151328       12.348610
 H         2.160762       12.421195       10.894081
 H         2.606968       13.669798       10.101907
 H         2.146829        8.433617       10.894144
 H         2.581519        7.162238       10.120293
 H         6.470474        7.179981       12.286386
 H         6.022585        8.444433       11.522031
 H         6.091210        8.475307       17.599199
 H         7.430049        8.461411       16.826811
 H         7.424345       12.384454       16.783220
 H         6.538646       13.649135       16.772221
 H         0.414415        8.718143       16.843754
 H         1.763210        8.723617       17.600914
381
 generated by VMD
 O         9.102325        1.739795       12.315376
 O        12.983118        4.507712       10.164268
 O        14.273606        5.456257       12.347844
 O        12.980180        4.491135       14.543280
 O        10.387343        0.844553       14.558059
 O        10.400970        5.407171       14.575029
 O        13.002491        1.748283       10.083599
 O        12.967520        1.762764       14.563077
 O         9.068624        4.520282       16.802624
 O         9.073938        4.478951       12.341293
 O        10.360770        5.408827       10.098936
 O        10.400777        0.837264       10.067397
 O        14.288270        0.863882       12.326086
 O        14.274089        0.889603       16.812338
 O        14.176127        5.310687       16.817322
 O         9.105383        1.771885       16.791882
 O         9.111888        9.058908        3.316310
 O        12.967502       11.869205        1.072392
 O        14.244810       12.769403        3.336798
 O        12.968276       11.810227        5.587639
 O        10.367372        8.193629        5.597485
 O        10.358616       12.682843        5.571954
 O        12.966554        9.137822        1.077352
 O        12.998179        9.070575        5.583940
 O         9.069187       11.822803        7.844886
 O         9.075701       11.796652        3.317138
 O        10.365895       12.726932        1.086229
 O        10.441301        8.115549        1.088486
 O        14.338367        8.302299        3.290486
 O        14.281902        8.180406        7.847151
 O        14.288896       12.648945        7.851313
 O         9.067561        9.090021        7.849091
 O         1.434947        9.161548        3.302822
 O         5.218504       11.812748        1.096219
 O         6.490736       12.717170        3.345344
 O         5.203125       11.791087        5.589504
 O         2.645820        8.173613        5.587866
 O         2.623313       12.735971        5.611508
 O         5.259106        9.076811        1.091641
 O         5.222103        9.061331        5.558879
 O         1.354036       11.787350        7.844939
 O         1.340855       11.918661        3.337706
 O         2.636740       12.731800        1.081177
 O         2.664973        8.169312        1.065881
 O         6.527603        8.135039        3.331392
 O         6.476958        8.166036        7.822427
 O         6.474640       12.698378        7.834254
 O         1.348238        9.059426        7.847138
 O         1.315696        1.757449        3.281533
 O         5.288002        4.473933        1.073050
 O         6.523212        5.395683        3.334004
 O         5.223843        4.483349        5.577631
 O         2.611888        0.861781        5.536632
 O         2.632375        5.419103        5.573837
 O         5.218782        1.727762        1.055116
 O         5.205327        1.736608        5.579835
 O         1.361839        4.495276        7.826080
 O         1.451335        4.493032        3.249152
 O         2.703856        5.421796        0.984247
 O         2.613497        0.868844        1.050070
 O         6.497593        0.862384        3.314156
 O         6.492465        0.830847        7.818695
 O         6.435969        5.421509        7.862901
 O         1.339305        1.745027        7.800076
 O         9.094887        1.795571        3.324842
 O        12.449964        4.149522        0.269750
 O        12.604722        4.270097        6.245442
 O        10.354755        0.824345        5.563160
 O        10.251028        5.484933        5.620413
 O        12.889667        1.823591        1.115161
 O        12.975608        1.639679        5.638062
 O         9.005246        4.498736        7.869025
 O         9.128560        4.550471        3.322865
 O        10.439282        5.419938        1.122421
 O        10.363706        0.868165        1.102458
 O        14.199191        0.914220        3.288050
 O        14.297017        0.766100        7.851774
 O        14.325590        5.441969        7.977712
 O         9.078104        1.749454        7.826175
 O         1.327022        1.785149       12.330115
 O         5.184115        4.473846       10.092028
 O         6.475668        5.401353       12.307376
 O         5.165811        4.520294       14.545992
 O         2.632613        0.875068       14.567801
 O         2.582356        5.447047       14.559042
 O         5.207974        1.731008       10.058860
 O         5.235240        1.772850       14.545315
 O         1.252265        4.552048       16.799894
 O         1.311119        4.522429       12.320988
 O         2.605897        5.393642       10.081634
 O         2.607917        0.854377       10.067204
 O         6.515390        0.850836       12.293013
 O         6.521407        0.825446       16.761541
 O         6.508629        5.407820       16.749691
 O         1.289375        1.816913       16.773115
 O         9.070141        9.056307       12.312554
 O        12.968143       11.780579       10.092529
 O        14.274748       12.729976       12.309332
 O        12.990609       11.816887       14.550364
 O        10.389897        8.147187       14.538566
 O        10.397348       12.707893       14.548968
 O        12.972695        9.048100       10.090135
 O        12.972839        9.080455       14.565928
 O         9.101664       11.787885       16.785971
 O         9.074318       11.796861       12.325566
 O        10.383862       12.697615       10.087627
 O        10.380805        8.154167       10.080181
 O        14.283176        8.177932       12.340572
 O        14.233282        8.148278       16.824638
 O        14.286935       12.748104       16.767630
 O         9.122022        9.039615       16.804287
 O         1.328311        9.079261       12.338100
 O         5.196540       11.781032       10.084130
 O         6.482100       12.702167       12.322214
 O         5.177063       11.782307       14.565901
 O         2.612349        8.186687       14.571378
 O         2.610536       12.733481       14.582752
 O         5.175886        9.038319       10.073794
 O         5.216454        9.043443       14.573401
 O         1.325886       11.801222       16.811304
 O         1.327245       11.825768       12.338002
 O         2.622400       12.707103       10.098084
 O         2.592565        8.125268       10.098213
 O         6.486037        8.142689       12.310965
 O         6.524066        8.136481       16.806974
 O         6.509861       12.686636       16.784956
 O         1.313809        9.057389       16.815077
 H         8.195260        1.415622       12.283830
 H         9.541055        1.418406       11.520617
 H        12.077422        4.831141       10.156479
 H        13.399339        4.853863       10.962209
 H        13.820598        5.144588       13.138283
 H        14.265766        6.420107       12.374921
 H        12.951850        3.527141       14.537777
 H        12.065515        4.795676       14.560205
 H        10.377831       14.483168       14.539250
 H         9.932903        1.137996       13.760324
 H        10.388638        6.370735       14.572152
 H         9.932936        5.126634       15.367934
 H        13.004435        2.710006       10.115406
 H        13.455727        1.453341       10.880856
 H        12.066656        1.420820       14.573753
 H        13.397811        1.444037       15.362836
 H         9.476638        4.855592       17.602438
 H         8.157868        4.841235       16.794798
 H         9.099662        3.516248       12.355492
 H         9.536855        4.782245       13.128254
 H         9.893132        5.080225       10.873837
 H         9.883303        5.080861        9.330934
 H        11.315125        1.138136       10.070941
 H        10.424800       14.476505       10.073249
 H        13.848093        1.185193       13.119303
 H        15.192549        1.196473       12.351388
 H        15.174984        1.237040       16.820677
 H        13.844171        1.200209       17.610367
 H        15.106013        5.043691       16.862736
 H        13.834069        5.034197       15.955456
 H         9.563310        1.468074       16.000261
 H         9.111965        2.733923       16.768908
 H         9.585219        8.753764        2.536227
 H         9.109713       10.021546        3.284213
 H        13.405693       12.190309        0.278109
 H        12.059361       12.187551        1.047726
 H        13.787228       12.432559        2.559720
 H        13.784449       12.418271        4.105749
 H        13.434501       12.091964        6.381156
 H        12.987040       10.846712        5.592509
 H         9.899980        8.534917        6.366994
 H         9.907950        8.519497        4.816563
 H        10.376563       13.645187        5.564199
 H        11.276326       12.389766        5.583536
 H        12.971302       10.100739        1.084953
 H        13.456355        8.856050        1.859442
 H        13.444307        8.760564        4.788527
 H        12.094448        8.745285        5.548939
 H         9.504547       12.136893        7.045674
 H         8.161330       12.143970        7.816803
 H         9.512059       12.110091        4.116644
 H         8.170111       12.124046        3.346767
 H         9.911104       12.412807        1.875576
 H        10.339522       13.688136        1.118578
 H         9.998265        8.442161        0.297793
 H        11.334599        8.481751        1.078910
 H        14.385481        7.345362        3.186810
 H        15.258776        8.591286        3.291117
 H        13.834446        8.462845        7.042254
 H        14.287062        7.218698        7.842503
 H        15.196936       12.327308        7.874633
 H        13.849855       12.317804        8.641770
 H         9.532354        8.782259        8.633744
 H         9.079165       10.052816        7.877501
 H         1.433949       10.122044        3.341681
 H         1.849185        8.842200        4.109737
 H         4.312196       12.138865        1.071305
 H         5.653194       12.131851        0.298369
 H         6.485437       13.679669        3.319955
 H         6.038607       12.420674        2.547672
 H         5.219032       10.827978        5.552548
 H         5.653327       12.104692        4.798218
 H         2.183895        8.460818        6.381393
 H         2.613164        7.211168        5.584259
 H         3.523078       12.392767        5.615887
 H         2.193085       12.396470        6.403766
 H         5.703842        8.770557        1.888942
 H         5.256791       10.039503        1.120072
 H         5.655129        8.720176        4.769582
 H         4.314926        8.733590        5.547089
 H         1.373633       10.823611        7.860779
 H         1.801089       12.088650        8.642755
 H         1.762097       12.229703        4.145564
 H         0.427442       12.219414        3.359575
 H         2.178849       12.460145        1.884901
 H         2.621270       13.694898        1.074300
 H         2.235445        8.501002        1.862493
 H         3.566651        8.504173        1.084796
 H         6.541538        7.171982        3.330678
 H         7.444373        8.428431        3.329463
 H         6.056731        8.488608        7.017375
 H         7.378964        8.502536        7.819000
 H         6.009882       12.358294        7.061464
 H         6.009823       12.365640        8.609416
 H         1.765926        8.715926        8.643960
 H         0.437544        8.746921        7.855774
 H         1.329500        2.722103        3.268908
 H         0.390185        1.498592        3.277868
 H         5.268950        3.511900        1.043949
 H         5.731396        4.769732        0.271624
 H         6.050196        5.064408        4.104924
 H         6.065699        5.059788        2.555336
 H         5.228518        3.521350        5.609280
 H         5.654984        4.792689        6.380379
 H         2.603248       14.500534        5.534957
 H         2.149314        1.151869        4.743207
 H         3.535372        5.087642        5.557016
 H         2.215656        5.110359        4.762630
 H         5.648062        1.385296        0.264344
 H         4.306503        1.418776        1.036268
 H         4.294314        1.424526        5.544399
 H         5.636596        1.424543        4.777825
 H         1.792632        4.804636        7.020814
 H         1.362523        3.533367        7.787819
 H         0.566988        4.872372        3.200863
 H         1.891869        4.819386        2.455080
 H         3.619487        5.128980        1.000702
 H         2.706799        6.383718        1.030588
 H         2.139312        1.212881        0.286976
 H         2.145302        1.190046        1.829632
 H         6.063968        1.179759        2.514375
 H         7.396163        1.204367        3.298399
 H         6.473657       14.469668        7.803446
 H         6.036469        1.128143        7.023438
 H         6.463812        6.384328        7.851241
 H         7.349801        5.118336        7.875073
 H         0.442864        1.396135        7.786234
 H         1.772018        1.427122        6.999990
 H         9.541900        1.476846        4.116301
 H         9.121021        2.757175        3.358266
 H        12.691026        3.289830        0.718249
 H        13.255111        4.704793        6.816406
 H        11.130924        5.150853        5.770881
 H         9.927165        1.148283        6.362932
 H        11.273926        1.106763        5.607114
 H        10.309311        6.448102        5.613875
 H         9.530892        4.886650        4.131245
 H        13.354949        1.554801        1.921715
 H        12.007750        1.424852        1.140672
 H        12.911555        2.579393        5.787441
 H        13.447935        1.292756        6.404307
 H         9.036070        3.537056        7.826995
 H         9.415997        4.829367        7.064893
 H        10.001726        5.130399        1.935567
 H         8.211310        4.848917        3.332083
 H        10.472312        6.388184        1.141478
 H        11.739430        4.694813        0.709279
 H         9.889678        1.205868        1.871715
 H         9.901086        1.190982        0.320666
 H        14.202128       14.552471        3.303469
 H        13.784010        1.193089        4.109532
 H        13.846346        1.086008        8.639567
 H        14.289092       14.404888        7.891975
 H        13.930778        5.129027        8.798672
 H        15.225080        5.099992        7.936142
 H         8.176545        1.410612        7.845648
 H         9.518326        1.420694        8.616537
 H         1.798469        1.483570       13.113737
 H         1.335505        2.748101       12.351647
 H         5.201740        3.511580       10.055553
 H         5.622874        4.793012        9.295125
 H         6.046708        5.057609       11.515377
 H         7.377962        5.066847       12.303528
 H         5.595852        4.850025       13.749606
 H         4.261237        4.851698       14.534727
 H         3.551636        1.161310       14.564165
 H         2.642935       14.513782       14.578635
 H         2.130378        5.152629       13.761208
 H         2.580164        6.410161       14.542308
 H         4.299456        1.411820       10.040711
 H         5.636335        1.401574        9.261077
 H         5.220805        2.735619       14.527200
 H         5.682582        1.483063       13.743394
 H         1.712600        4.886295       16.022932
 H         1.755187        4.864048       17.563343
 H         0.409001        4.858739       12.303100
 H         1.744406        4.834015       11.518465
 H         3.510000        5.060836       10.079225
 H         2.192044        5.067188        9.274441
 H         2.144185        1.178134        9.287659
 H         2.144287        1.199950       10.836349
 H         6.049407        1.139971       11.500549
 H         6.488857       14.490286       12.291513
 H         7.420412        1.168631       16.756884
 H         6.091200        1.169981       15.971090
 H         6.028015        5.117975       15.966070
 H         6.489166        6.371420       16.751680
 H         1.763809        1.516323       15.990877
 H         1.302740        2.780589       16.760580
 H         8.167121        8.721102       12.292137
 H         9.505808        8.732138       11.517003
 H        12.052364       12.078295       10.084415
 H        12.945900       10.817308       10.099916
 H        13.814223       12.420293       11.522161
 H        14.264132       13.692551       12.283302
 H        13.459855       12.160236       15.318726
 H        13.457108       12.144590       13.773892
 H        11.289380        8.490799       14.520635
 H         9.946259        8.474845       13.748738
 H         9.952734       12.371911       13.763192
 H        11.303870       12.383485       14.520146
 H        13.453640        8.728666       10.860563
 H        13.446266        8.736253        9.310965
 H        13.415028        8.771617       15.363742
 H        12.992847       10.043438       14.589967
 H         9.573841       12.118645       16.014576
 H         9.561328       12.126591       17.561365
 H         9.045228       10.834036       12.323381
 H         8.159868       12.099789       12.330593
 H         9.905440       12.385277        9.312284
 H         9.906563       12.374363       10.859171
 H        11.299574        8.443106       10.084841
 H        10.393739        7.191488       10.083109
 H        15.188216        8.508755       12.363291
 H        13.843704        8.516998       13.128109
 H        14.207030        7.192957       16.879538
 H        13.791265        8.478684       17.616676
 H        14.322070       13.709423       16.779697
 H        15.197573       12.433512       16.792219
 H         9.566236        8.745852       16.001974
 H         9.126205       10.002429       16.781862
 H         1.788310        8.790531       13.134573
 H         1.341523       10.042173       12.347195
 H         4.283452       12.088676       10.089111
 H         5.165722       10.818333       10.079100
 H         6.008001       12.374761       13.093592
 H         6.016672       12.366048       11.548359
 H         5.652157       12.081799       15.348450
 H         5.199324       10.819492       14.583745
 H         3.522768        8.498942       14.600175
 H         2.176075        8.506430       15.369119
 H         2.177570       12.393525       15.373688
 H         3.508763       12.384754       14.591864
 H         4.273423        8.702031       10.059161
 H         5.606202        8.724673        9.271084
 H         5.695354        8.713212       15.340823
 H         5.674619        8.714539       13.792872
 H         1.785104       12.097961       17.604921
 H         1.324712       10.837999       16.833649
 H         1.754378       12.157847       13.135132
 H         0.420957       12.151328       12.348610
 H         2.160762       12.421195       10.894081
 H         2.606968       13.669798       10.101907
 H         2.146829        8.433617       10.894144
 H         2.581519        7.162238       10.120293
 H         6.470474        7.179981       12.286386
 H         6.022585        8.444433       11.522031
 H         6.091210        8.475307       17.599199
 H         7.430049        8.461411       16.826811
 H         7.424345       12.384454       16.783220
 H         6.538646       13.649135       16.772221
 H         0.414415        8.718143       16.843754
 H         1.763210        8.723617       17.600914
 H        13.206437        4.647532       17.778059
