381
 generated by VMD
 O         9.082341        1.801161       12.319324
 O        12.583368        4.229998        9.362456
 O        12.479216        4.166575       15.349601
 O        10.353607        0.901840       14.578794
 O        10.455995        5.402776       14.499290
 O        12.927426        1.616536       10.055076
 O        12.993228        1.831352       14.599902
 O         9.093019        4.507329       16.779549
 O         9.115053        4.555641       12.311243
 O        10.249821        5.486900       10.005073
 O        10.306000        0.798449       10.074667
 O        14.242724        0.943810       12.376148
 O        14.260695        0.854463       16.754713
 O        14.176832        5.335468       16.765766
 O         9.069345        1.777129       16.821095
 O         9.090994        9.039453        3.339827
 O        12.956333       11.813675        1.089197
 O        14.245638       12.685216        3.345028
 O        12.956213       11.772696        5.582884
 O        10.413467        8.136312        5.560857
 O        10.371263       12.686865        5.571894
 O        12.971758        9.076292        1.081894
 O        13.002935        9.042484        5.582069
 O         9.064259       11.805453        7.811800
 O         9.050913       11.785655        3.347833
 O        10.364636       12.707574        1.127245
 O        10.399064        8.149505        1.088092
 O        14.280030        8.147875        3.316103
 O        14.295287        8.158323        7.818719
 O        14.290040       12.673064        7.793123
 O         9.098155        9.076609        7.772442
 O         1.332352        9.046473        3.315711
 O         5.207628       11.774830        1.046024
 O         6.463893       12.722705        3.295181
 O         5.164940       11.861191        5.562202
 O         2.613566        8.170438        5.569814
 O         2.565336       12.726321        5.587315
 O         5.192246        9.038230        1.080829
 O         5.187457        9.115119        5.585555
 O         1.345739       11.788024        7.854893
 O         1.305801       11.783918        3.342620
 O         2.622974       12.691806        1.107870
 O         2.606416        8.115898        1.079876
 O         6.479361        8.186159        3.351379
 O         6.505822        8.152776        7.788052
 O         6.483677       12.726647        7.798285
 O         1.353641        9.065609        7.835122
 O         1.283446        1.736455        3.320372
 O         5.176988        4.508118        1.076256
 O         6.472757        5.445517        3.301100
 O         5.209716        4.482797        5.527684
 O         2.578808        0.859627        5.582934
 O         2.646945        5.429123        5.532574
 O         5.172847        1.767114        1.099792
 O         5.173252        1.739283        5.586345
 O         1.376286        4.538086        7.795891
 O         1.325359        4.476641        3.326291
 O         2.572894        5.374748        1.062281
 O         2.592640        0.833067        1.087621
 O         6.472813        0.862434        3.344359
 O         6.457663        0.857171        7.841838
 O         6.445137        5.408461        7.773208
 O         1.316247        1.791919        7.839080
 O         9.060981        1.772540        3.349818
 O        12.954713        4.482209        1.073508
 O        14.288616        5.408237        3.267445
 O        12.979865        4.461524        5.441989
 O        10.361681        0.825349        5.581918
 O        10.387575        5.394549        5.534346
 O        12.949193        1.752979        1.065110
 O        12.962110        1.710881        5.553590
 O         9.020051        4.509244        7.750822
 O         9.053564        4.517157        3.309477
 O        10.380080        5.415555        1.084269
 O        10.346836        0.855136        1.114361
 O        14.228547        0.818004        3.291329
 O        14.290261        0.800575        7.798529
 O        14.321172        5.416484        7.649823
 O         9.051088        1.758412        7.821642
 O         1.322084        1.757884       12.343834
 O         5.245492        4.500982       10.060103
 O         6.516568        5.401112       12.319571
 O         5.234307        4.497183       14.575275
 O         2.625975        0.846966       14.600393
 O         2.700279        5.447225       14.645836
 O         5.193621        1.757373       10.093401
 O         5.214562        1.765076       14.574217
 O         1.206347        4.497747       16.799232
 O         1.510880        4.496865       12.346634
 O         2.690537        5.445833       10.041375
 O         2.604575        0.866267       10.091459
 O         6.500128        0.855749       12.327909
 O         6.493589        0.853676       16.815580
 O         6.510158        5.438917       16.819605
 O         1.291455        1.748866       16.798323
 O         9.133629        9.035246       12.310367
 O        12.988374       11.848584       10.066708
 O        14.262094       12.774814       12.320730
 O        12.973015       11.872986       14.563424
 O        10.422466        8.099062       14.536730
 O        10.369287       12.741842       14.563387
 O        13.001078        9.095972       10.055017
 O        12.938569        9.134683       14.599367
 O         9.127477       11.795107       16.808010
 O         9.119006       11.768256       12.323341
 O        10.360039       12.672069       10.057214
 O        10.406995        8.199323       10.021830
 O        14.322528        8.306340       12.333917
 O        14.291641        8.169481       16.802074
 O        14.266703       12.734921       16.803070
 O         9.116366        9.045707       16.780270
 O         1.425126        9.150876       12.324083
 O         5.256972       11.808628       10.074063
 O         6.547143       12.725209       12.295913
 O         5.242733       11.823769       14.532335
 O         2.672319        8.190601       14.572572
 O         2.643135       12.712323       14.580668
 O         5.269254        9.065591       10.064179
 O         5.269343        9.086820       14.542771
 O         1.329182       11.810587       16.805449
 O         1.344455       11.895245       12.326138
 O         2.658863       12.736419       10.076653
 O         2.687145        8.197524       10.083095
 O         6.552424        8.152781       12.296872
 O         6.521279        8.168818       16.791039
 O         6.537183       12.712826       16.773642
 O         1.345364        9.055621       16.787506
 H         9.102946        2.763391       12.327122
 H         9.533278        1.508409       13.117206
 H        13.241309        4.662537        8.799269
 H        11.119359        5.127773        9.851707
 H        13.221172        4.678709       15.794487
 H        12.737946        3.292821       14.936106
 H        11.262783        1.204118       14.608217
 H         9.922898        1.219938       15.380976
 H        10.477771        6.371942       14.483445
 H        11.757894        4.692531       14.904364
 H        12.846285        2.550033        9.876917
 H        12.022767        1.286696       10.072456
 H        13.475735        1.434248       15.341566
 H        13.455001        1.575784       13.787209
 H         9.534224        4.788643       15.976864
 H         9.092328        3.543069       16.779085
 H         8.200103        4.862245       12.315311
 H        10.010341        5.117043       13.689394
 H         9.511563        4.888300       11.499045
 H        10.338349        6.447306       10.017605
 H         9.850356        1.144280        9.300043
 H         9.858876        1.158796       10.847259
 H        13.813301        1.237684       11.567883
 H        15.154085        1.258593       12.341265
 H        15.179668        1.150539       16.770893
 H        14.279490       14.491917       16.775375
 H        13.817591        5.056604       17.619776
 H        15.097698        5.033057       16.732370
 H         8.161901        1.450987       16.834309
 H         9.496754        1.444322       17.618279
 H         9.556666        8.717527        2.561418
 H         9.572118        8.709138        4.106248
 H        12.051072       12.140367        1.123840
 H        13.394496       12.128009        1.887450
 H        15.151063       12.357176        3.362572
 H        13.812453       12.352071        4.138692
 H        12.977700       10.809440        5.597606
 H        13.432236       12.070525        6.366097
 H         9.967722        8.479509        6.343043
 H        11.318898        8.463347        5.589026
 H        11.275018       12.353899        5.595486
 H         9.935147       12.368322        6.369662
 H        12.978034       10.039591        1.066555
 H        13.446804        8.781247        0.298050
 H        13.472262        8.717829        4.806864
 H        13.477296        8.719817        6.356698
 H         8.163152       12.146112        7.823228
 H         9.492071       12.116103        8.617429
 H         9.073792       10.822928        3.359856
 H         9.515140       12.080098        4.138956
 H         9.900239       12.403918        1.915006
 H        10.339714       13.669690        1.142212
 H        11.301615        8.486874        1.067887
 H         9.964079        8.478543        0.294280
 H        14.266582        7.185596        3.279137
 H        13.813516        8.461740        2.534496
 H        13.845823        8.452354        8.618670
 H        14.284922        7.197088        7.820245
 H        14.326983       13.635172        7.776717
 H        15.202970       12.365821        7.821970
 H         8.189044        8.759109        7.780014
 H         9.053948       10.039227        7.779971
 H         1.765112        8.709473        2.523406
 H         0.425756        8.721968        3.293435
 H         5.212965       10.811616        1.033685
 H         5.672771       12.071582        0.257265
 H         6.043187       12.380814        2.499203
 H         7.363924       12.381145        3.301173
 H         4.257677       12.184616        5.547898
 H         5.589833       12.174022        4.757174
 H         2.623070        7.207809        5.539759
 H         2.160238        8.464031        4.772043
 H         2.119889       12.384143        6.370138
 H         2.098233       12.378206        4.820349
 H         4.291447        8.697524        1.100819
 H         5.626204        8.729901        1.883255
 H         5.156375       10.077551        5.586512
 H         4.274416        8.807885        5.578163
 H         1.810586       12.095379        8.639964
 H         1.365191       10.824314        7.875183
 H         1.329391       10.821190        3.312757
 H         1.771516       12.092126        2.557917
 H         2.182189       12.374007        0.312159
 H         3.526058       12.359211        1.072036
 H         2.162410        8.429729        0.284079
 H         2.581719        7.153638        1.052046
 H         7.390908        8.495278        3.370514
 H         6.047675        8.534529        4.138804
 H         6.475123        7.190731        7.761035
 H         6.037453        8.469684        7.008571
 H         6.017385       12.441998        7.004949
 H         6.463440       13.689782        7.799208
 H         0.450556        8.732544        7.822323
 H         1.779996        8.739100        7.035859
 H         0.380810        1.403040        3.291590
 H         1.726218        1.410066        2.529510
 H         5.636555        4.855817        1.848067
 H         5.651086        4.840106        0.306115
 H         6.454891        6.407513        3.344559
 H         6.029672        5.122814        4.093585
 H         5.641196        4.786405        6.334660
 H         5.208921        3.520310        5.561620
 H         2.556583       14.498500        5.569831
 H         2.121430        1.153346        4.788260
 H         2.193705        5.085239        4.755701
 H         3.547429        5.088197        5.501585
 H         5.187273        2.730358        1.108655
 H         5.632380        1.475517        1.894267
 H         5.599316        1.421471        6.389429
 H         4.264636        1.419922        5.605016
 H         1.857010        4.862853        7.027401
 H         1.831369        4.874351        8.575795
 H         0.414822        4.790729        3.306138
 H         1.285066        3.514286        3.326528
 H         2.158052        5.048128        1.867844
 H         3.483361        5.060669        1.071939
 H         3.503386        1.146515        1.094098
 H         2.630837       14.472634        1.092526
 H         6.461804       14.501459        3.338866
 H         6.011542        1.140148        4.143425
 H         7.361578        1.187774        7.849660
 H         6.032709        1.181293        8.643686
 H         6.034633        5.077776        8.580344
 H         7.350492        5.080389        7.770199
 H         1.766521        1.480279        7.046843
 H         1.350738        2.754150        7.811749
 H         8.145711        1.471332        3.346936
 H         9.034514        2.735208        3.340572
 H        12.041113        4.789471        1.078456
 H        12.928196        3.518362        1.074002
 H        13.809024        5.067400        4.031132
 H        13.819890        5.078824        2.493750
 H        12.068071        4.769826        5.476701
 H        12.951692        3.499997        5.480880
 H        10.349496       14.464504        5.554033
 H         9.902967        1.134063        4.793859
 H         9.911600        5.113739        4.745361
 H        10.390929        6.357897        5.526442
 H        13.417821        1.410205        1.834805
 H        13.416501        1.428666        0.288864
 H        12.057080        1.382722        5.586221
 H        13.405150        1.390112        6.345424
 H         9.506342        4.836088        6.986150
 H         9.441341        4.885315        8.529521
 H         8.153326        4.859675        3.285775
 H         9.494783        4.839040        2.516598
 H        10.379250        6.379506        1.070526
 H         9.927827        5.125340        0.286026
 H        11.254734        1.174605        1.121896
 H         9.920146        1.196064        1.908319
 H        14.224688       14.457010        3.326072
 H        13.781220        1.119328        4.089191
 H        13.843643        1.064709        8.607720
 H        15.180614        1.167374        7.836067
 H        15.230491        5.100026        7.693882
 H        13.942471        5.102607        6.823717
 H         9.509099        1.442698        7.035783
 H         9.062654        2.719951        7.780199
 H         1.376210        2.720435       12.371231
 H         1.774410        1.441590       13.132289
 H         5.198612        3.539371       10.066538
 H         4.335742        4.822638       10.055588
 H         6.042026        5.078496       13.093383
 H         6.050423        5.066810       11.545163
 H         5.681151        4.828372       15.360543
 H         4.332048        4.837301       14.619139
 H         2.658689       14.486154       14.597204
 H         3.538258        1.154773       14.587639
 H         2.651896        6.409112       14.629090
 H         2.156647        5.149946       15.379367
 H         4.284592        1.439419       10.116076
 H         5.625650        1.429025       10.888865
 H         5.226111        2.728772       14.553306
 H         5.667849        1.463792       13.780034
 H         1.681060        4.787895       17.585932
 H         1.249796        3.535725       16.796124
 H         0.626320        4.878112       12.380877
 H         1.940679        4.833456       13.141787
 H         2.670007        6.407865       10.080934
 H         2.257440        5.136374       10.844309
 H         2.134589        1.186901       10.869510
 H         2.137864        1.203788        9.320480
 H         6.541847       14.495080       12.316074
 H         7.408552        1.172107       12.320732
 H         6.028440        1.180425       16.036964
 H         6.012605        1.178790       17.584103
 H         7.423521        5.138830       16.814981
 H         6.531099        6.402289       16.806973
 H         1.760582        1.421469       17.573338
 H         1.777973        1.428572       16.029419
 H         8.226254        8.710358       12.284415
 H         9.560714        8.733674       11.501993
 H        13.418626       12.154482        9.261573
 H        12.074239       12.147514       10.032457
 H        14.243538       13.736395       12.313703
 H        13.813964       12.478526       11.521321
 H        12.067325       12.197222       14.534591
 H        13.410446       12.188238       13.764997
 H         9.988635        8.430232       13.742229
 H        11.313102        8.472154       14.538795
 H         9.933227       12.429567       15.364035
 H        10.335242       13.702058       14.584163
 H        13.016817       10.058077       10.073936
 H        13.454812        8.802850       10.853340
 H        13.425113        8.827379       15.369403
 H        12.960444       10.096525       14.615901
 H         9.570654       12.083628       17.613012
 H         9.137387       10.832392       16.810537
 H         9.135713       10.805107       12.348052
 H         9.564366       12.079210       13.117784
 H        10.318044       13.633550       10.085969
 H         9.928930       12.356020       10.858777
 H         9.978708        8.532815        9.226617
 H        11.314214        8.525355       10.017742
 H        13.846267        8.557645       13.132347
 H        14.428609        7.350342       12.392465
 H        14.285270        7.213802       16.746681
 H        15.215532        8.445301       16.781784
 H        13.794168       12.403179       17.573761
 H        13.795632       12.414021       16.025633
 H         9.542993        8.704206       15.988093
 H         8.205695        8.730994       16.767555
 H         0.509883        8.852565       12.337218
 H         1.389495       10.112412       12.329292
 H         5.267589       10.845383       10.054871
 H         5.688230       12.105572        9.265856
 H         7.443918       12.374724       12.284655
 H         6.111370       12.395205       11.501723
 H         5.709363       12.159538       13.759601
 H         5.715333       12.150531       15.305267
 H         2.239573        8.514730       13.774714
 H         3.579474        8.510002       14.542635
 H         3.546010       12.379354       14.549483
 H         2.205425       12.410456       13.776745
 H         5.688236        8.732720        9.263833
 H         4.357123        8.751790       10.050390
 H         5.279449       10.049576       14.514489
 H         5.724017        8.779333       13.751850
 H         0.426155       12.141662       16.782322
 H         1.769447       12.140410       16.014326
 H         0.436216       12.210994       12.300726
 H         1.777029       12.210126       11.525420
 H         3.573226       12.436563       10.083783
 H         2.675243       13.699516       10.072556
 H         2.224217        8.530190       10.860447
 H         2.197846        8.509027        9.315713
 H         6.091770        8.453204       11.505064
 H         6.516227        7.190844       12.289348
 H         6.038328        8.483430       17.562698
 H         6.060490        8.503820       16.013388
 H         7.453641       12.418823       16.787342
 H         6.547776       13.675484       16.795046
 H         1.813203        8.774933       15.991516
 H         1.343857       10.018100       16.779463
381
 generated by VMD
 O         9.082341        1.801161       12.319324
 O        12.583368        4.229998        9.362456
 O        12.479216        4.166575       15.349601
 O        10.353607        0.901840       14.578794
 O        10.455995        5.402776       14.499290
 O        12.927426        1.616536       10.055076
 O        12.993228        1.831352       14.599902
 O         9.093019        4.507329       16.779549
 O         9.115053        4.555641       12.311243
 O        10.249821        5.486900       10.005073
 O        10.306000        0.798449       10.074667
 O        14.242724        0.943810       12.376148
 O        14.260695        0.854463       16.754713
 O        14.176832        5.335468       16.765766
 O         9.069345        1.777129       16.821095
 O         9.090994        9.039453        3.339827
 O        12.956333       11.813675        1.089197
 O        14.245638       12.685216        3.345028
 O        12.956213       11.772696        5.582884
 O        10.413467        8.136312        5.560857
 O        10.371263       12.686865        5.571894
 O        12.971758        9.076292        1.081894
 O        13.002935        9.042484        5.582069
 O         9.064259       11.805453        7.811800
 O         9.050913       11.785655        3.347833
 O        10.364636       12.707574        1.127245
 O        10.399064        8.149505        1.088092
 O        14.280030        8.147875        3.316103
 O        14.295287        8.158323        7.818719
 O        14.290040       12.673064        7.793123
 O         9.098155        9.076609        7.772442
 O         1.332352        9.046473        3.315711
 O         5.207628       11.774830        1.046024
 O         6.463893       12.722705        3.295181
 O         5.164940       11.861191        5.562202
 O         2.613566        8.170438        5.569814
 O         2.565336       12.726321        5.587315
 O         5.192246        9.038230        1.080829
 O         5.187457        9.115119        5.585555
 O         1.345739       11.788024        7.854893
 O         1.305801       11.783918        3.342620
 O         2.622974       12.691806        1.107870
 O         2.606416        8.115898        1.079876
 O         6.479361        8.186159        3.351379
 O         6.505822        8.152776        7.788052
 O         6.483677       12.726647        7.798285
 O         1.353641        9.065609        7.835122
 O         1.283446        1.736455        3.320372
 O         5.176988        4.508118        1.076256
 O         6.472757        5.445517        3.301100
 O         5.209716        4.482797        5.527684
 O         2.578808        0.859627        5.582934
 O         2.646945        5.429123        5.532574
 O         5.172847        1.767114        1.099792
 O         5.173252        1.739283        5.586345
 O         1.376286        4.538086        7.795891
 O         1.325359        4.476641        3.326291
 O         2.572894        5.374748        1.062281
 O         2.592640        0.833067        1.087621
 O         6.472813        0.862434        3.344359
 O         6.457663        0.857171        7.841838
 O         6.445137        5.408461        7.773208
 O         1.316247        1.791919        7.839080
 O         9.060981        1.772540        3.349818
 O        12.954713        4.482209        1.073508
 O        14.288616        5.408237        3.267445
 O        12.979865        4.461524        5.441989
 O        10.361681        0.825349        5.581918
 O        10.387575        5.394549        5.534346
 O        12.949193        1.752979        1.065110
 O        12.962110        1.710881        5.553590
 O         9.020051        4.509244        7.750822
 O         9.053564        4.517157        3.309477
 O        10.380080        5.415555        1.084269
 O        10.346836        0.855136        1.114361
 O        14.228547        0.818004        3.291329
 O        14.290261        0.800575        7.798529
 O        14.321172        5.416484        7.649823
 O         9.051088        1.758412        7.821642
 O         1.322084        1.757884       12.343834
 O         5.245492        4.500982       10.060103
 O         6.516568        5.401112       12.319571
 O         5.234307        4.497183       14.575275
 O         2.625975        0.846966       14.600393
 O         2.700279        5.447225       14.645836
 O         5.193621        1.757373       10.093401
 O         5.214562        1.765076       14.574217
 O         1.206347        4.497747       16.799232
 O         1.510880        4.496865       12.346634
 O         2.690537        5.445833       10.041375
 O         2.604575        0.866267       10.091459
 O         6.500128        0.855749       12.327909
 O         6.493589        0.853676       16.815580
 O         6.510158        5.438917       16.819605
 O         1.291455        1.748866       16.798323
 O         9.133629        9.035246       12.310367
 O        12.988374       11.848584       10.066708
 O        14.262094       12.774814       12.320730
 O        12.973015       11.872986       14.563424
 O        10.422466        8.099062       14.536730
 O        10.369287       12.741842       14.563387
 O        13.001078        9.095972       10.055017
 O        12.938569        9.134683       14.599367
 O         9.127477       11.795107       16.808010
 O         9.119006       11.768256       12.323341
 O        10.360039       12.672069       10.057214
 O        10.406995        8.199323       10.021830
 O        14.322528        8.306340       12.333917
 O        14.291641        8.169481       16.802074
 O        14.266703       12.734921       16.803070
 O         9.116366        9.045707       16.780270
 O         1.425126        9.150876       12.324083
 O         5.256972       11.808628       10.074063
 O         6.547143       12.725209       12.295913
 O         5.242733       11.823769       14.532335
 O         2.672319        8.190601       14.572572
 O         2.643135       12.712323       14.580668
 O         5.269254        9.065591       10.064179
 O         5.269343        9.086820       14.542771
 O         1.329182       11.810587       16.805449
 O         1.344455       11.895245       12.326138
 O         2.658863       12.736419       10.076653
 O         2.687145        8.197524       10.083095
 O         6.552424        8.152781       12.296872
 O         6.521279        8.168818       16.791039
 O         6.537183       12.712826       16.773642
 O         1.345364        9.055621       16.787506
 H         9.102946        2.763391       12.327122
 H         9.533278        1.508409       13.117206
 H        13.241309        4.662537        8.799269
 H        11.119359        5.127773        9.851707
 H        13.221172        4.678709       15.794487
 H        12.737946        3.292821       14.936106
 H        11.262783        1.204118       14.608217
 H         9.922898        1.219938       15.380976
 H        10.477771        6.371942       14.483445
 H        11.757894        4.692531       14.904364
 H        12.846285        2.550033        9.876917
 H        12.022767        1.286696       10.072456
 H        13.475735        1.434248       15.341566
 H        13.455001        1.575784       13.787209
 H         9.534224        4.788643       15.976864
 H         9.092328        3.543069       16.779085
 H         8.200103        4.862245       12.315311
 H        10.010341        5.117043       13.689394
 H         9.511563        4.888300       11.499045
 H        10.338349        6.447306       10.017605
 H         9.850356        1.144280        9.300043
 H         9.858876        1.158796       10.847259
 H        13.813301        1.237684       11.567883
 H        15.154085        1.258593       12.341265
 H        15.179668        1.150539       16.770893
 H        14.279490       14.491917       16.775375
 H        13.817591        5.056604       17.619776
 H        15.097698        5.033057       16.732370
 H         8.161901        1.450987       16.834309
 H         9.496754        1.444322       17.618279
 H         9.556666        8.717527        2.561418
 H         9.572118        8.709138        4.106248
 H        12.051072       12.140367        1.123840
 H        13.394496       12.128009        1.887450
 H        15.151063       12.357176        3.362572
 H        13.812453       12.352071        4.138692
 H        12.977700       10.809440        5.597606
 H        13.432236       12.070525        6.366097
 H         9.967722        8.479509        6.343043
 H        11.318898        8.463347        5.589026
 H        11.275018       12.353899        5.595486
 H         9.935147       12.368322        6.369662
 H        12.978034       10.039591        1.066555
 H        13.446804        8.781247        0.298050
 H        13.472262        8.717829        4.806864
 H        13.477296        8.719817        6.356698
 H         8.163152       12.146112        7.823228
 H         9.492071       12.116103        8.617429
 H         9.073792       10.822928        3.359856
 H         9.515140       12.080098        4.138956
 H         9.900239       12.403918        1.915006
 H        10.339714       13.669690        1.142212
 H        11.301615        8.486874        1.067887
 H         9.964079        8.478543        0.294280
 H        14.266582        7.185596        3.279137
 H        13.813516        8.461740        2.534496
 H        13.845823        8.452354        8.618670
 H        14.284922        7.197088        7.820245
 H        14.326983       13.635172        7.776717
 H        15.202970       12.365821        7.821970
 H         8.189044        8.759109        7.780014
 H         9.053948       10.039227        7.779971
 H         1.765112        8.709473        2.523406
 H         0.425756        8.721968        3.293435
 H         5.212965       10.811616        1.033685
 H         5.672771       12.071582        0.257265
 H         6.043187       12.380814        2.499203
 H         7.363924       12.381145        3.301173
 H         4.257677       12.184616        5.547898
 H         5.589833       12.174022        4.757174
 H         2.623070        7.207809        5.539759
 H         2.160238        8.464031        4.772043
 H         2.119889       12.384143        6.370138
 H         2.098233       12.378206        4.820349
 H         4.291447        8.697524        1.100819
 H         5.626204        8.729901        1.883255
 H         5.156375       10.077551        5.586512
 H         4.274416        8.807885        5.578163
 H         1.810586       12.095379        8.639964
 H         1.365191       10.824314        7.875183
 H         1.329391       10.821190        3.312757
 H         1.771516       12.092126        2.557917
 H         2.182189       12.374007        0.312159
 H         3.526058       12.359211        1.072036
 H         2.162410        8.429729        0.284079
 H         2.581719        7.153638        1.052046
 H         7.390908        8.495278        3.370514
 H         6.047675        8.534529        4.138804
 H         6.475123        7.190731        7.761035
 H         6.037453        8.469684        7.008571
 H         6.017385       12.441998        7.004949
 H         6.463440       13.689782        7.799208
 H         0.450556        8.732544        7.822323
 H         1.779996        8.739100        7.035859
 H         0.380810        1.403040        3.291590
 H         1.726218        1.410066        2.529510
 H         5.636555        4.855817        1.848067
 H         5.651086        4.840106        0.306115
 H         6.454891        6.407513        3.344559
 H         6.029672        5.122814        4.093585
 H         5.641196        4.786405        6.334660
 H         5.208921        3.520310        5.561620
 H         2.556583       14.498500        5.569831
 H         2.121430        1.153346        4.788260
 H         2.193705        5.085239        4.755701
 H         3.547429        5.088197        5.501585
 H         5.187273        2.730358        1.108655
 H         5.632380        1.475517        1.894267
 H         5.599316        1.421471        6.389429
 H         4.264636        1.419922        5.605016
 H         1.857010        4.862853        7.027401
 H         1.831369        4.874351        8.575795
 H         0.414822        4.790729        3.306138
 H         1.285066        3.514286        3.326528
 H         2.158052        5.048128        1.867844
 H         3.483361        5.060669        1.071939
 H         3.503386        1.146515        1.094098
 H         2.630837       14.472634        1.092526
 H         6.461804       14.501459        3.338866
 H         6.011542        1.140148        4.143425
 H         7.361578        1.187774        7.849660
 H         6.032709        1.181293        8.643686
 H         6.034633        5.077776        8.580344
 H         7.350492        5.080389        7.770199
 H         1.766521        1.480279        7.046843
 H         1.350738        2.754150        7.811749
 H         8.145711        1.471332        3.346936
 H         9.034514        2.735208        3.340572
 H        12.041113        4.789471        1.078456
 H        12.928196        3.518362        1.074002
 H        13.809024        5.067400        4.031132
 H        13.819890        5.078824        2.493750
 H        12.068071        4.769826        5.476701
 H        12.951692        3.499997        5.480880
 H        10.349496       14.464504        5.554033
 H         9.902967        1.134063        4.793859
 H         9.911600        5.113739        4.745361
 H        10.390929        6.357897        5.526442
 H        13.417821        1.410205        1.834805
 H        13.416501        1.428666        0.288864
 H        12.057080        1.382722        5.586221
 H        13.405150        1.390112        6.345424
 H         9.506342        4.836088        6.986150
 H         9.441341        4.885315        8.529521
 H         8.153326        4.859675        3.285775
 H         9.494783        4.839040        2.516598
 H        10.379250        6.379506        1.070526
 H         9.927827        5.125340        0.286026
 H        11.254734        1.174605        1.121896
 H         9.920146        1.196064        1.908319
 H        14.224688       14.457010        3.326072
 H        13.781220        1.119328        4.089191
 H        13.843643        1.064709        8.607720
 H        15.180614        1.167374        7.836067
 H        15.230491        5.100026        7.693882
 H        13.942471        5.102607        6.823717
 H         9.509099        1.442698        7.035783
 H         9.062654        2.719951        7.780199
 H         1.376210        2.720435       12.371231
 H         1.774410        1.441590       13.132289
 H         5.198612        3.539371       10.066538
 H         4.335742        4.822638       10.055588
 H         6.042026        5.078496       13.093383
 H         6.050423        5.066810       11.545163
 H         5.681151        4.828372       15.360543
 H         4.332048        4.837301       14.619139
 H         2.658689       14.486154       14.597204
 H         3.538258        1.154773       14.587639
 H         2.651896        6.409112       14.629090
 H         2.156647        5.149946       15.379367
 H         4.284592        1.439419       10.116076
 H         5.625650        1.429025       10.888865
 H         5.226111        2.728772       14.553306
 H         5.667849        1.463792       13.780034
 H         1.681060        4.787895       17.585932
 H         1.249796        3.535725       16.796124
 H         0.626320        4.878112       12.380877
 H         1.940679        4.833456       13.141787
 H         2.670007        6.407865       10.080934
 H         2.257440        5.136374       10.844309
 H         2.134589        1.186901       10.869510
 H         2.137864        1.203788        9.320480
 H         6.541847       14.495080       12.316074
 H         7.408552        1.172107       12.320732
 H         6.028440        1.180425       16.036964
 H         6.012605        1.178790       17.584103
 H         7.423521        5.138830       16.814981
 H         6.531099        6.402289       16.806973
 H         1.760582        1.421469       17.573338
 H         1.777973        1.428572       16.029419
 H         8.226254        8.710358       12.284415
 H         9.560714        8.733674       11.501993
 H        13.418626       12.154482        9.261573
 H        12.074239       12.147514       10.032457
 H        14.243538       13.736395       12.313703
 H        13.813964       12.478526       11.521321
 H        12.067325       12.197222       14.534591
 H        13.410446       12.188238       13.764997
 H         9.988635        8.430232       13.742229
 H        11.313102        8.472154       14.538795
 H         9.933227       12.429567       15.364035
 H        10.335242       13.702058       14.584163
 H        13.016817       10.058077       10.073936
 H        13.454812        8.802850       10.853340
 H        13.425113        8.827379       15.369403
 H        12.960444       10.096525       14.615901
 H         9.570654       12.083628       17.613012
 H         9.137387       10.832392       16.810537
 H         9.135713       10.805107       12.348052
 H         9.564366       12.079210       13.117784
 H        10.318044       13.633550       10.085969
 H         9.928930       12.356020       10.858777
 H         9.978708        8.532815        9.226617
 H        11.314214        8.525355       10.017742
 H        13.846267        8.557645       13.132347
 H        14.428609        7.350342       12.392465
 H        14.285270        7.213802       16.746681
 H        15.215532        8.445301       16.781784
 H        13.794168       12.403179       17.573761
 H        13.795632       12.414021       16.025633
 H         9.542993        8.704206       15.988093
 H         8.205695        8.730994       16.767555
 H         0.509883        8.852565       12.337218
 H         1.389495       10.112412       12.329292
 H         5.267589       10.845383       10.054871
 H         5.688230       12.105572        9.265856
 H         7.443918       12.374724       12.284655
 H         6.111370       12.395205       11.501723
 H         5.709363       12.159538       13.759601
 H         5.715333       12.150531       15.305267
 H         2.239573        8.514730       13.774714
 H         3.579474        8.510002       14.542635
 H         3.546010       12.379354       14.549483
 H         2.205425       12.410456       13.776745
 H         5.688236        8.732720        9.263833
 H         4.357123        8.751790       10.050390
 H         5.279449       10.049576       14.514489
 H         5.724017        8.779333       13.751850
 H         0.426155       12.141662       16.782322
 H         1.769447       12.140410       16.014326
 H         0.436216       12.210994       12.300726
 H         1.777029       12.210126       11.525420
 H         3.573226       12.436563       10.083783
 H         2.675243       13.699516       10.072556
 H         2.224217        8.530190       10.860447
 H         2.197846        8.509027        9.315713
 H         6.091770        8.453204       11.505064
 H         6.516227        7.190844       12.289348
 H         6.038328        8.483430       17.562698
 H         6.060490        8.503820       16.013388
 H         7.453641       12.418823       16.787342
 H         6.547776       13.675484       16.795046
 H         1.813203        8.774933       15.991516
 H         1.343857       10.018100       16.779463
