381
 generated by VMD
 O         9.076542        1.764026       12.321596
 O        12.995683        4.523675       10.066031
 O        14.252546        5.415970       12.364482
 O        12.948086        4.494979       14.635240
 O        10.357922        0.859869       14.564970
 O        10.391787        5.434483       14.556877
 O        12.985804        1.773365       10.067801
 O        12.940022        1.750744       14.559752
 O         9.164690        4.537155       16.826332
 O         9.099458        4.508381       12.346444
 O        10.390827        5.422248       10.130935
 O        10.383415        0.849044       10.094090
 O        14.245419        0.865996       12.316784
 O        14.233423        0.889792       16.799957
 O        14.264419        5.386370       16.813335
 O         9.078087        1.803624       16.796087
 O         9.059872        9.076082        3.290044
 O        12.996956       11.851946        1.074049
 O        14.292841       12.696361        3.340088
 O        12.993802       11.884081        5.596548
 O        10.359435        8.356624        5.618060
 O        10.348015       12.679960        5.563152
 O        12.971621        9.124254        1.050268
 O        12.966086        9.166425        5.602498
 O         9.048471       11.876877        7.842256
 O         9.081044       11.828352        3.285093
 O        10.407572       12.743153        1.059343
 O        10.394813        8.130864        1.098843
 O        14.294538        8.245767        3.304340
 O        14.274288        8.176013        7.815937
 O        14.294885       12.675752        7.875408
 O         9.040123        9.135826        7.898967
 O         1.319867        9.070620        3.358802
 O         5.207389       11.791852        1.077561
 O         6.496081       12.692601        3.313916
 O         5.206381       11.791517        5.545564
 O         2.602468        8.144394        5.576964
 O         2.636619       12.692795        5.565660
 O         5.178164        9.049323        1.120031
 O         5.167708        9.049807        5.567468
 O         1.358460       11.803073        7.836278
 O         1.341386       11.785789        3.311969
 O         2.630270       12.705913        1.076108
 O         2.565265        8.132413        1.095281
 O         6.471613        8.135459        3.336735
 O         6.462524        8.170112        7.844378
 O         6.458100       12.707667        7.802782
 O         1.331194        9.065676        7.824215
 O         1.271712        1.744677        3.292094
 O         5.145010        4.505692        1.046092
 O         6.409060        5.421349        3.326914
 O         5.121666        4.542614        5.547898
 O         2.610788        0.819102        5.547420
 O         2.551554        5.410638        5.443516
 O         5.181892        1.764487        1.056004
 O         5.188622        1.799808        5.538299
 O         1.386700        4.470098        7.818395
 O         1.241111        4.600756        3.250803
 O         2.521883        5.420306        1.085792
 O         2.591112        0.837401        1.047954
 O         6.451322        0.817139        3.309209
 O         6.444159        0.847345        7.793127
 O         6.414888        5.416464        7.824697
 O         1.336245        1.739101        7.793125
 O         9.088136        1.587945        3.277076
 O        13.078790        4.454764        1.340356
 O        14.364437        5.190607        3.278886
 O        13.613864        4.252993        5.548317
 O        10.285199        0.791237        5.623683
 O        12.947309        1.812839        1.084812
 O        12.937114        1.561271        5.627136
 O         9.000862        4.475881        7.933241
 O         8.780820        4.345612        2.949753
 O        10.648281        5.401132        1.031671
 O        10.417776        0.877653        1.042681
 O        14.234341        0.845234        3.322688
 O        14.286167        0.785966        7.843849
 O        14.341976        5.395270        7.837081
 O         9.027376        1.733996        7.862398
 O         1.308947        1.765136       12.302550
 O         5.197834        4.500251       10.130428
 O         6.520388        5.419521       12.345874
 O         5.242746        4.524444       14.589459
 O         2.606659        0.858697       14.550236
 O         2.652264        5.421233       14.557776
 O         5.172428        1.748238       10.046658
 O         5.192347        1.774956       14.527364
 O         1.321671        4.486015       16.785620
 O         1.304332        4.511558       12.332227
 O         2.608898        5.409214       10.096596
 O         2.579797        0.839957       10.045642
 O         6.484241        0.872051       12.282937
 O         6.488069        0.865601       16.769440
 O         6.561430        5.437880       16.826826
 O         1.290096        1.763751       16.768833
 O         9.088095        9.065549       12.325443
 O        13.000639       11.782805       10.102369
 O        14.284580       12.729590       12.346336
 O        12.965234       11.829642       14.575396
 O        10.388338        8.176861       14.560394
 O        10.376776       12.713284       14.572587
 O        12.994054        9.055252       10.091380
 O        12.966825        9.085430       14.572506
 O         9.084096       11.789500       16.806322
 O         9.106068       11.798736       12.307283
 O        10.413162       12.716892       10.077974
 O        10.373753        8.176526       10.094098
 O        14.279874        8.152599       12.348837
 O        14.286648        8.152788       16.806473
 O        14.278376       12.761330       16.784094
 O         9.086274        9.044033       16.808731
 O         1.328874        9.072647       12.313351
 O         5.214036       11.801467       10.069245
 O         6.513884       12.726583       12.294456
 O         5.215055       11.829127       14.540503
 O         2.600505        8.164890       14.556359
 O         2.627629       12.718391       14.554812
 O         5.188801        9.075604       10.106574
 O         5.191388        9.084584       14.580660
 O         1.323341       11.806753       16.792763
 O         1.330597       11.810424       12.316964
 O         2.635304       12.710542       10.080930
 O         2.606806        8.151411       10.076460
 O         6.493894        8.153171       12.337976
 O         6.489759        8.178805       16.818447
 O         6.509414       12.723994       16.786797
 O         1.323466        9.075891       16.791618
 H         9.521351        1.430211       11.534832
 H         8.167819        1.447432       12.280768
 H        12.088523        4.850338       10.074872
 H        13.409102        4.843459       10.873659
 H        13.793374        5.117915       13.154712
 H        14.246699        6.379459       12.384279
 H        12.919267        3.532640       14.600203
 H        12.034779        4.804456       14.600730
 H         9.885887        1.183458       13.789397
 H         9.895072        1.206915       15.335269
 H         9.931210        5.127076       13.767002
 H        10.378910        6.397360       14.532816
 H        12.991796        2.735855       10.037936
 H        13.439311        1.462617        9.278564
 H        12.034981        1.419005       14.535476
 H        13.377316        1.435789       13.761077
 H         8.263725        4.876810       16.848061
 H         9.560634        4.860608       16.009945
 H         9.559865        4.813267       11.555053
 H         9.108098        3.545769       12.321108
 H         9.910036        5.116124        9.355066
 H        10.378840        6.384617       10.087760
 H        10.419591       14.488186       10.091456
 H        11.293678        1.158986       10.081770
 H        15.150763        1.193425       12.299965
 H        13.818630        1.193237       11.517009
 H        14.234226       14.527426       16.783215
 H        13.771643        1.175607       16.002693
 H        13.830173        5.062328       17.598686
 H        13.762596        5.056015       16.054447
 H         8.160834        1.511498       16.791576
 H         9.070950        2.767312       16.809132
 H         9.063914       10.038478        3.286619
 H         9.498001        8.812111        4.106111
 H        13.449471       12.124105        1.879047
 H        12.992201       10.888696        1.073514
 H        13.834002       12.418801        4.142663
 H        14.272694       13.657271        3.336957
 H        13.445934       12.158177        6.401246
 H        12.986267       10.920042        5.610272
 H         9.893107        8.626436        6.420447
 H        10.380992        7.395961        5.665767
 H        10.333022       13.644153        5.583355
 H        11.274009       12.420130        5.578711
 H        13.442949        8.779290        0.284029
 H        13.446701        8.813685        1.824675
 H        12.048079        8.865197        5.597840
 H        13.371296        8.837425        4.799572
 H         9.527783       12.153990        7.054213
 H         9.546089       12.192572        8.603045
 H         9.564584       12.165699        2.524464
 H         9.548700       12.132424        4.070449
 H        10.425451       13.705853        1.036668
 H        11.324527       12.450479        1.066220
 H        11.278139        8.508846        1.111049
 H         9.943608        8.451200        1.889429
 H        15.219584        8.532958        3.336728
 H        14.306007        7.298500        3.322225
 H        14.254155        7.216756        7.789018
 H        13.792262        8.486068        7.042096
 H        15.200041       12.347408        7.884326
 H        13.861606       12.339233        8.668391
 H         8.137300        8.803576        7.868954
 H         8.989620       10.096373        7.897288
 H         1.346479       10.035473        3.360921
 H         1.783981        8.775719        4.151919
 H         5.664670       12.090349        1.872192
 H         5.204078       10.829169        1.108588
 H         6.495407       13.656397        3.311271
 H         7.419002       12.414089        3.301482
 H         5.685155       12.120917        4.776427
 H         5.671153       12.117883        6.324092
 H         3.511979        8.469162        5.591528
 H         2.176911        8.472540        6.376846
 H         2.198279       12.358075        4.777211
 H         3.543598       12.364684        5.538542
 H         5.622053        8.709812        1.907412
 H         4.277772        8.715142        1.140047
 H         5.644375        8.733612        4.791113
 H         5.197192       10.011624        5.535029
 H         1.831396       12.135113        8.607127
 H         1.819496       12.130500        7.057253
 H         1.775141       12.120636        2.519432
 H         0.437366       12.118376        3.302284
 H         3.545792       12.403080        1.077778
 H         2.653621       13.668309        1.064504
 H         2.118453        8.490728        0.320117
 H         2.110271        8.477535        1.870029
 H         6.494719        7.169563        3.340872
 H         7.386742        8.434736        3.328120
 H         5.990035        8.500889        8.613963
 H         5.996834        8.488253        7.065357
 H         6.460253       13.670981        7.798405
 H         7.383076       12.435322        7.816679
 H         0.411173        8.780582        7.818134
 H         1.323591       10.028955        7.831019
 H         1.256579        2.700151        3.289934
 H         0.353780        1.449658        3.310969
 H         4.228489        4.787564        1.042461
 H         5.144118        3.542766        1.055287
 H         7.303666        5.052427        3.244526
 H         5.949898        5.115455        2.540975
 H         5.584264        4.860013        6.331149
 H         5.618788        4.859110        4.781481
 H         2.148206        1.105590        4.757045
 H         2.622138       14.456923        5.529316
 H         2.581888        6.373378        5.503089
 H         3.471939        5.112916        5.472036
 H         5.627661        1.440091        0.265864
 H         4.284173        1.421684        1.027940
 H         4.279980        1.486865        5.545482
 H         5.154869        2.762900        5.545249
 H         1.809008        4.777823        7.012543
 H         1.392819        3.505986        7.786491
 H         1.729505        4.903230        2.462832
 H         1.731992        4.907555        4.034344
 H         2.539999        6.385448        1.052306
 H         2.096906        5.113714        0.275150
 H         2.116197        1.165872        0.276937
 H         2.120759        1.158792        1.821618
 H         6.005024        1.183917        4.079395
 H         6.003262        1.169534        2.534284
 H         7.352980        1.168975        7.803972
 H         6.035829        1.195480        6.994140
 H         6.437555        6.378625        7.850554
 H         5.979550        5.126810        8.631516
 H         1.797220        1.409077        8.573255
 H         1.802992        1.396486        7.023714
 H         8.170659        1.301138        3.306033
 H         9.489012        1.323910        4.109851
 H        13.011208        3.487151        1.243142
 H        12.171772        4.818127        1.252434
 H        15.361497        4.957747        3.226705
 H        13.795035        4.850649        2.461568
 H        13.801563        4.714067        6.389762
 H        14.019900        4.864338        4.136889
 H         9.848655        1.143317        6.408052
 H        11.191883        1.103256        5.653110
 H        13.388889        1.482689        0.292416
 H        12.036907        1.483568        1.052181
 H        13.407278        1.242773        6.409498
 H        13.016970        2.507225        5.659192
 H         8.102022        4.822647        7.869242
 H         9.474000        4.857801        7.190894
 H         8.963698        3.419682        3.097049
 H         9.469487        4.697567        2.395566
 H        10.146340        5.107476        0.263369
 H        10.550050        6.359054        1.072102
 H         9.930119        1.136821        1.836627
 H         9.922889        1.215628        0.287887
 H        13.744229        1.093435        4.114085
 H        13.739102        1.164827        2.562436
 H        14.318960       14.424522        7.883847
 H        15.197774        1.095144        7.823270
 H        15.249571        5.082932        7.920982
 H        13.861449        5.093131        8.617450
 H         9.497990        1.441439        8.649056
 H         9.032310        2.697524        7.881146
 H         1.769037        1.460797       13.091854
 H         1.321710        2.727358       12.330814
 H         5.172403        3.538540       10.099213
 H         4.283312        4.799357       10.131925
 H         7.425873        5.090976       12.317786
 H         6.077237        5.083908       11.558798
 H         5.710838        4.850314       13.812316
 H         5.722142        4.850033       15.358908
 H         2.639717       14.498043       14.551966
 H         3.519652        1.166922       14.544338
 H         2.217118        5.081388       15.344649
 H         3.561940        5.103035       14.583110
 H         4.268586        1.418312       10.030789
 H         5.598675        1.431652        9.242500
 H         5.223704        2.737402       14.532348
 H         5.648587        1.485230       13.729683
 H         1.301156        3.521502       16.773493
 H         0.406016        4.779706       16.762535
 H         1.761809        4.841424       13.112077
 H         0.400375        4.842033       12.375504
 H         2.120626        5.084832       10.860651
 H         2.173897        5.061555        9.312886
 H         2.581814       14.479248       10.084159
 H         2.131268        1.149403       10.839517
 H         6.483578       14.511217       12.270543
 H         6.022824        1.158220       11.486891
 H         6.492587       14.504648       16.757710
 H         6.034413        1.153541       15.970408
 H         6.527427        6.399967       16.846085
 H         6.075606        5.130818       17.599304
 H         1.733028        1.430246       15.979773
 H         0.383533        1.438172       16.743544
 H         9.525535        8.742620       11.528214
 H         8.184297        8.734922       12.303709
 H        13.452164       12.087480       10.895828
 H        13.009685       10.819022       10.125233
 H        13.815525       12.436943       13.134767
 H        14.257517       13.692356       12.347444
 H        12.047600       12.124912       14.574890
 H        12.945652       10.866915       14.571233
 H         9.917980        8.502743       13.784554
 H         9.907849        8.493058       15.333334
 H        10.351958       13.675654       14.589207
 H         9.915723       12.409206       15.361846
 H        13.455121        8.727528        9.313222
 H        13.459403        8.712813       10.860862
 H        13.399336        8.748196       15.362233
 H        12.061360        8.754515       14.585223
 H         9.552358       12.095149       17.590847
 H         9.096780       10.826730       16.830048
 H         9.552246       12.097271       13.105882
 H         9.108597       10.835320       12.329820
 H         9.971390       12.379462       10.864655
 H        11.311166       12.371074       10.098139
 H         9.932604        8.507151        9.303085
 H        11.281682        8.490417       10.058110
 H        15.182199        8.489218       12.360551
 H        13.839198        8.500943       13.130726
 H        15.201148        8.457931       16.790218
 H        14.309505        7.192677       16.802118
 H        13.804164       12.423613       16.015596
 H        13.812478       12.431849       17.560614
 H         8.176854        8.727430       16.834158
 H         9.522535        8.701703       17.596306
 H         1.343537       10.035584       12.294322
 H         1.776665        8.770453       11.515543
 H         5.654441       12.095172        9.263977
 H         5.218770       10.837705       10.058111
 H         6.079694       12.389439       11.503062
 H         7.418072       12.395974       12.275569
 H         5.683849       12.153085       13.763611
 H         5.690719       12.155231       15.312016
 H         2.610629        7.202275       14.539093
 H         2.150095        8.455482       13.755553
 H         3.534413       12.392594       14.568165
 H         2.197161       12.386483       15.349286
 H         5.631861        8.739305       10.892867
 H         4.287742        8.737950       10.125945
 H         4.274823        8.791503       14.568264
 H         5.178989       10.047148       14.559919
 H         1.763138       12.135602       17.584480
 H         0.424233       12.151524       16.806301
 H         0.427554       12.145569       12.339962
 H         1.768020       12.139247       13.109419
 H         3.541850       12.383725       10.105330
 H         2.195208       12.378887       10.870745
 H         2.596504        7.188795       10.059406
 H         2.156767        8.449409        9.278948
 H         6.041369        8.453142       13.132370
 H         6.494281        7.189988       12.361785
 H         6.018931        8.508304       16.045666
 H         6.015764        8.501541       17.592070
 H         7.411206       12.385959       16.813852
 H         6.067561       12.386539       17.573204
 H         1.781782        8.777589       15.997585
 H         1.329621       10.039611       16.772671
381
 generated by VMD
 O         9.076542        1.764026       12.321596
 O        12.995683        4.523675       10.066031
 O        14.252546        5.415970       12.364482
 O        12.948086        4.494979       14.635240
 O        10.357922        0.859869       14.564970
 O        10.391787        5.434483       14.556877
 O        12.985804        1.773365       10.067801
 O        12.940022        1.750744       14.559752
 O         9.164690        4.537155       16.826332
 O         9.099458        4.508381       12.346444
 O        10.390827        5.422248       10.130935
 O        10.383415        0.849044       10.094090
 O        14.245419        0.865996       12.316784
 O        14.233423        0.889792       16.799957
 O        14.264419        5.386370       16.813335
 O         9.078087        1.803624       16.796087
 O         9.059872        9.076082        3.290044
 O        12.996956       11.851946        1.074049
 O        14.292841       12.696361        3.340088
 O        12.993802       11.884081        5.596548
 O        10.359435        8.356624        5.618060
 O        10.348015       12.679960        5.563152
 O        12.971621        9.124254        1.050268
 O        12.966086        9.166425        5.602498
 O         9.048471       11.876877        7.842256
 O         9.081044       11.828352        3.285093
 O        10.407572       12.743153        1.059343
 O        10.394813        8.130864        1.098843
 O        14.294538        8.245767        3.304340
 O        14.274288        8.176013        7.815937
 O        14.294885       12.675752        7.875408
 O         9.040123        9.135826        7.898967
 O         1.319867        9.070620        3.358802
 O         5.207389       11.791852        1.077561
 O         6.496081       12.692601        3.313916
 O         5.206381       11.791517        5.545564
 O         2.602468        8.144394        5.576964
 O         2.636619       12.692795        5.565660
 O         5.178164        9.049323        1.120031
 O         5.167708        9.049807        5.567468
 O         1.358460       11.803073        7.836278
 O         1.341386       11.785789        3.311969
 O         2.630270       12.705913        1.076108
 O         2.565265        8.132413        1.095281
 O         6.471613        8.135459        3.336735
 O         6.462524        8.170112        7.844378
 O         6.458100       12.707667        7.802782
 O         1.331194        9.065676        7.824215
 O         1.271712        1.744677        3.292094
 O         5.145010        4.505692        1.046092
 O         6.409060        5.421349        3.326914
 O         5.121666        4.542614        5.547898
 O         2.610788        0.819102        5.547420
 O         2.551554        5.410638        5.443516
 O         5.181892        1.764487        1.056004
 O         5.188622        1.799808        5.538299
 O         1.386700        4.470098        7.818395
 O         1.241111        4.600756        3.250803
 O         2.521883        5.420306        1.085792
 O         2.591112        0.837401        1.047954
 O         6.451322        0.817139        3.309209
 O         6.444159        0.847345        7.793127
 O         6.414888        5.416464        7.824697
 O         1.336245        1.739101        7.793125
 O         9.088136        1.587945        3.277076
 O        13.078790        4.454764        1.340356
 O        14.364437        5.190607        3.278886
 O        13.613864        4.252993        5.548317
 O        10.285199        0.791237        5.623683
 O        12.947309        1.812839        1.084812
 O        12.937114        1.561271        5.627136
 O         9.000862        4.475881        7.933241
 O         8.780820        4.345612        2.949753
 O        10.648281        5.401132        1.031671
 O        10.417776        0.877653        1.042681
 O        14.234341        0.845234        3.322688
 O        14.286167        0.785966        7.843849
 O        14.341976        5.395270        7.837081
 O         9.027376        1.733996        7.862398
 O         1.308947        1.765136       12.302550
 O         5.197834        4.500251       10.130428
 O         6.520388        5.419521       12.345874
 O         5.242746        4.524444       14.589459
 O         2.606659        0.858697       14.550236
 O         2.652264        5.421233       14.557776
 O         5.172428        1.748238       10.046658
 O         5.192347        1.774956       14.527364
 O         1.321671        4.486015       16.785620
 O         1.304332        4.511558       12.332227
 O         2.608898        5.409214       10.096596
 O         2.579797        0.839957       10.045642
 O         6.484241        0.872051       12.282937
 O         6.488069        0.865601       16.769440
 O         6.561430        5.437880       16.826826
 O         1.290096        1.763751       16.768833
 O         9.088095        9.065549       12.325443
 O        13.000639       11.782805       10.102369
 O        14.284580       12.729590       12.346336
 O        12.965234       11.829642       14.575396
 O        10.388338        8.176861       14.560394
 O        10.376776       12.713284       14.572587
 O        12.994054        9.055252       10.091380
 O        12.966825        9.085430       14.572506
 O         9.084096       11.789500       16.806322
 O         9.106068       11.798736       12.307283
 O        10.413162       12.716892       10.077974
 O        10.373753        8.176526       10.094098
 O        14.279874        8.152599       12.348837
 O        14.286648        8.152788       16.806473
 O        14.278376       12.761330       16.784094
 O         9.086274        9.044033       16.808731
 O         1.328874        9.072647       12.313351
 O         5.214036       11.801467       10.069245
 O         6.513884       12.726583       12.294456
 O         5.215055       11.829127       14.540503
 O         2.600505        8.164890       14.556359
 O         2.627629       12.718391       14.554812
 O         5.188801        9.075604       10.106574
 O         5.191388        9.084584       14.580660
 O         1.323341       11.806753       16.792763
 O         1.330597       11.810424       12.316964
 O         2.635304       12.710542       10.080930
 O         2.606806        8.151411       10.076460
 O         6.493894        8.153171       12.337976
 O         6.489759        8.178805       16.818447
 O         6.509414       12.723994       16.786797
 O         1.323466        9.075891       16.791618
 H         9.521351        1.430211       11.534832
 H         8.167819        1.447432       12.280768
 H        12.088523        4.850338       10.074872
 H        13.409102        4.843459       10.873659
 H        13.793374        5.117915       13.154712
 H        14.246699        6.379459       12.384279
 H        12.919267        3.532640       14.600203
 H        12.034779        4.804456       14.600730
 H         9.885887        1.183458       13.789397
 H         9.895072        1.206915       15.335269
 H         9.931210        5.127076       13.767002
 H        10.378910        6.397360       14.532816
 H        12.991796        2.735855       10.037936
 H        13.439311        1.462617        9.278564
 H        12.034981        1.419005       14.535476
 H        13.377316        1.435789       13.761077
 H         8.263725        4.876810       16.848061
 H         9.560634        4.860608       16.009945
 H         9.559865        4.813267       11.555053
 H         9.108098        3.545769       12.321108
 H         9.910036        5.116124        9.355066
 H        10.378840        6.384617       10.087760
 H        10.419591       14.488186       10.091456
 H        11.293678        1.158986       10.081770
 H        15.150763        1.193425       12.299965
 H        13.818630        1.193237       11.517009
 H        14.234226       14.527426       16.783215
 H        13.771643        1.175607       16.002693
 H        13.830173        5.062328       17.598686
 H        13.762596        5.056015       16.054447
 H         8.160834        1.511498       16.791576
 H         9.070950        2.767312       16.809132
 H         9.063914       10.038478        3.286619
 H         9.498001        8.812111        4.106111
 H        13.449471       12.124105        1.879047
 H        12.992201       10.888696        1.073514
 H        13.834002       12.418801        4.142663
 H        14.272694       13.657271        3.336957
 H        13.445934       12.158177        6.401246
 H        12.986267       10.920042        5.610272
 H         9.893107        8.626436        6.420447
 H        10.380992        7.395961        5.665767
 H        10.333022       13.644153        5.583355
 H        11.274009       12.420130        5.578711
 H        13.442949        8.779290        0.284029
 H        13.446701        8.813685        1.824675
 H        12.048079        8.865197        5.597840
 H        13.371296        8.837425        4.799572
 H         9.527783       12.153990        7.054213
 H         9.546089       12.192572        8.603045
 H         9.564584       12.165699        2.524464
 H         9.548700       12.132424        4.070449
 H        10.425451       13.705853        1.036668
 H        11.324527       12.450479        1.066220
 H        11.278139        8.508846        1.111049
 H         9.943608        8.451200        1.889429
 H        15.219584        8.532958        3.336728
 H        14.306007        7.298500        3.322225
 H        14.254155        7.216756        7.789018
 H        13.792262        8.486068        7.042096
 H        15.200041       12.347408        7.884326
 H        13.861606       12.339233        8.668391
 H         8.137300        8.803576        7.868954
 H         8.989620       10.096373        7.897288
 H         1.346479       10.035473        3.360921
 H         1.783981        8.775719        4.151919
 H         5.664670       12.090349        1.872192
 H         5.204078       10.829169        1.108588
 H         6.495407       13.656397        3.311271
 H         7.419002       12.414089        3.301482
 H         5.685155       12.120917        4.776427
 H         5.671153       12.117883        6.324092
 H         3.511979        8.469162        5.591528
 H         2.176911        8.472540        6.376846
 H         2.198279       12.358075        4.777211
 H         3.543598       12.364684        5.538542
 H         5.622053        8.709812        1.907412
 H         4.277772        8.715142        1.140047
 H         5.644375        8.733612        4.791113
 H         5.197192       10.011624        5.535029
 H         1.831396       12.135113        8.607127
 H         1.819496       12.130500        7.057253
 H         1.775141       12.120636        2.519432
 H         0.437366       12.118376        3.302284
 H         3.545792       12.403080        1.077778
 H         2.653621       13.668309        1.064504
 H         2.118453        8.490728        0.320117
 H         2.110271        8.477535        1.870029
 H         6.494719        7.169563        3.340872
 H         7.386742        8.434736        3.328120
 H         5.990035        8.500889        8.613963
 H         5.996834        8.488253        7.065357
 H         6.460253       13.670981        7.798405
 H         7.383076       12.435322        7.816679
 H         0.411173        8.780582        7.818134
 H         1.323591       10.028955        7.831019
 H         1.256579        2.700151        3.289934
 H         0.353780        1.449658        3.310969
 H         4.228489        4.787564        1.042461
 H         5.144118        3.542766        1.055287
 H         7.303666        5.052427        3.244526
 H         5.949898        5.115455        2.540975
 H         5.584264        4.860013        6.331149
 H         5.618788        4.859110        4.781481
 H         2.148206        1.105590        4.757045
 H         2.622138       14.456923        5.529316
 H         2.581888        6.373378        5.503089
 H         3.471939        5.112916        5.472036
 H         5.627661        1.440091        0.265864
 H         4.284173        1.421684        1.027940
 H         4.279980        1.486865        5.545482
 H         5.154869        2.762900        5.545249
 H         1.809008        4.777823        7.012543
 H         1.392819        3.505986        7.786491
 H         1.729505        4.903230        2.462832
 H         1.731992        4.907555        4.034344
 H         2.539999        6.385448        1.052306
 H         2.096906        5.113714        0.275150
 H         2.116197        1.165872        0.276937
 H         2.120759        1.158792        1.821618
 H         6.005024        1.183917        4.079395
 H         6.003262        1.169534        2.534284
 H         7.352980        1.168975        7.803972
 H         6.035829        1.195480        6.994140
 H         6.437555        6.378625        7.850554
 H         5.979550        5.126810        8.631516
 H         1.797220        1.409077        8.573255
 H         1.802992        1.396486        7.023714
 H         8.170659        1.301138        3.306033
 H         9.489012        1.323910        4.109851
 H        13.011208        3.487151        1.243142
 H        12.171772        4.818127        1.252434
 H        15.361497        4.957747        3.226705
 H        13.795035        4.850649        2.461568
 H        13.801563        4.714067        6.389762
 H        14.019900        4.864338        4.136889
 H         9.848655        1.143317        6.408052
 H        11.191883        1.103256        5.653110
 H        13.388889        1.482689        0.292416
 H        12.036907        1.483568        1.052181
 H        13.407278        1.242773        6.409498
 H        13.016970        2.507225        5.659192
 H         8.102022        4.822647        7.869242
 H         9.474000        4.857801        7.190894
 H         8.963698        3.419682        3.097049
 H         9.469487        4.697567        2.395566
 H        10.146340        5.107476        0.263369
 H        10.550050        6.359054        1.072102
 H         9.930119        1.136821        1.836627
 H         9.922889        1.215628        0.287887
 H        13.744229        1.093435        4.114085
 H        13.739102        1.164827        2.562436
 H        14.318960       14.424522        7.883847
 H        15.197774        1.095144        7.823270
 H        15.249571        5.082932        7.920982
 H        13.861449        5.093131        8.617450
 H         9.497990        1.441439        8.649056
 H         9.032310        2.697524        7.881146
 H         1.769037        1.460797       13.091854
 H         1.321710        2.727358       12.330814
 H         5.172403        3.538540       10.099213
 H         4.283312        4.799357       10.131925
 H         7.425873        5.090976       12.317786
 H         6.077237        5.083908       11.558798
 H         5.710838        4.850314       13.812316
 H         5.722142        4.850033       15.358908
 H         2.639717       14.498043       14.551966
 H         3.519652        1.166922       14.544338
 H         2.217118        5.081388       15.344649
 H         3.561940        5.103035       14.583110
 H         4.268586        1.418312       10.030789
 H         5.598675        1.431652        9.242500
 H         5.223704        2.737402       14.532348
 H         5.648587        1.485230       13.729683
 H         1.301156        3.521502       16.773493
 H         0.406016        4.779706       16.762535
 H         1.761809        4.841424       13.112077
 H         0.400375        4.842033       12.375504
 H         2.120626        5.084832       10.860651
 H         2.173897        5.061555        9.312886
 H         2.581814       14.479248       10.084159
 H         2.131268        1.149403       10.839517
 H         6.483578       14.511217       12.270543
 H         6.022824        1.158220       11.486891
 H         6.492587       14.504648       16.757710
 H         6.034413        1.153541       15.970408
 H         6.527427        6.399967       16.846085
 H         6.075606        5.130818       17.599304
 H         1.733028        1.430246       15.979773
 H         0.383533        1.438172       16.743544
 H         9.525535        8.742620       11.528214
 H         8.184297        8.734922       12.303709
 H        13.452164       12.087480       10.895828
 H        13.009685       10.819022       10.125233
 H        13.815525       12.436943       13.134767
 H        14.257517       13.692356       12.347444
 H        12.047600       12.124912       14.574890
 H        12.945652       10.866915       14.571233
 H         9.917980        8.502743       13.784554
 H         9.907849        8.493058       15.333334
 H        10.351958       13.675654       14.589207
 H         9.915723       12.409206       15.361846
 H        13.455121        8.727528        9.313222
 H        13.459403        8.712813       10.860862
 H        13.399336        8.748196       15.362233
 H        12.061360        8.754515       14.585223
 H         9.552358       12.095149       17.590847
 H         9.096780       10.826730       16.830048
 H         9.552246       12.097271       13.105882
 H         9.108597       10.835320       12.329820
 H         9.971390       12.379462       10.864655
 H        11.311166       12.371074       10.098139
 H         9.932604        8.507151        9.303085
 H        11.281682        8.490417       10.058110
 H        15.182199        8.489218       12.360551
 H        13.839198        8.500943       13.130726
 H        15.201148        8.457931       16.790218
 H        14.309505        7.192677       16.802118
 H        13.804164       12.423613       16.015596
 H        13.812478       12.431849       17.560614
 H         8.176854        8.727430       16.834158
 H         9.522535        8.701703       17.596306
 H         1.343537       10.035584       12.294322
 H         1.776665        8.770453       11.515543
 H         5.654441       12.095172        9.263977
 H         5.218770       10.837705       10.058111
 H         6.079694       12.389439       11.503062
 H         7.418072       12.395974       12.275569
 H         5.683849       12.153085       13.763611
 H         5.690719       12.155231       15.312016
 H         2.610629        7.202275       14.539093
 H         2.150095        8.455482       13.755553
 H         3.534413       12.392594       14.568165
 H         2.197161       12.386483       15.349286
 H         5.631861        8.739305       10.892867
 H         4.287742        8.737950       10.125945
 H         4.274823        8.791503       14.568264
 H         5.178989       10.047148       14.559919
 H         1.763138       12.135602       17.584480
 H         0.424233       12.151524       16.806301
 H         0.427554       12.145569       12.339962
 H         1.768020       12.139247       13.109419
 H         3.541850       12.383725       10.105330
 H         2.195208       12.378887       10.870745
 H         2.596504        7.188795       10.059406
 H         2.156767        8.449409        9.278948
 H         6.041369        8.453142       13.132370
 H         6.494281        7.189988       12.361785
 H         6.018931        8.508304       16.045666
 H         6.015764        8.501541       17.592070
 H         7.411206       12.385959       16.813852
 H         6.067561       12.386539       17.573204
 H         1.781782        8.777589       15.997585
 H         1.329621       10.039611       16.772671
