381
 generated by VMD
 O         9.096544        1.761118       12.420226
 O        13.060392        4.466548       10.066577
 O        14.292888        5.396273       12.336644
 O        12.968269        4.491110       14.548550
 O        10.387593        0.827477       14.641037
 O        10.395082        5.430418       14.584002
 O        13.003582        1.693786       10.091105
 O        12.979080        1.755813       14.585203
 O         9.055553        4.482511       16.786860
 O         9.065926        4.454157       12.391780
 O        10.515236        5.623351       10.270133
 O        10.442569        0.811576       10.206422
 O        14.297320        0.831725       12.346971
 O        14.240289        0.839607       16.834684
 O        14.287580        5.395903       16.767628
 O         9.092359        1.727469       16.869249
 O         9.101219        9.070449        3.343173
 O        12.956172       11.765619        1.104059
 O        14.281068       12.720539        3.328047
 O        13.010731       11.751283        5.537926
 O        10.415517        8.261052        5.594596
 O        10.382550       12.628978        5.483399
 O        12.985048        9.039500        1.106161
 O        13.017065        9.051353        5.581248
 O         9.091039       11.772181        7.829164
 O         9.070434       11.827374        3.290447
 O        10.391932       12.706530        1.071823
 O        10.385870        8.151068        1.107398
 O        14.288006        8.138316        3.339246
 O        14.259551        8.132271        7.818288
 O        14.278755       12.750992        7.760499
 O         9.110636        9.075706        7.863569
 O         1.327656        9.067930        3.305228
 O         5.190025       11.795887        1.085066
 O         6.504360       12.737086        3.286547
 O         5.207171       11.776417        5.545958
 O         2.592078        8.146183        5.561798
 O         2.618665       12.713779        5.593436
 O         5.212311        9.068038        1.081372
 O         5.180135        9.062514        5.539395
 O         1.323217       11.814631        7.831218
 O         1.335829       11.815642        3.342067
 O         2.600607       12.706760        1.091752
 O         2.621801        8.167670        1.072242
 O         6.501826        8.143803        3.304787
 O         6.490567        8.216340        7.831526
 O         6.472785       12.654761        7.797309
 O         1.298351        9.079913        7.797551
 O         1.280493        1.755013        3.351945
 O         5.182320        4.524802        1.077961
 O         6.475560        5.410671        3.311419
 O         5.125582        4.501796        5.533276
 O         2.609374        0.851587        5.581082
 O         2.527324        5.409390        5.566014
 O         5.229354        1.786245        1.139062
 O         5.214536        1.759734        5.558190
 O         1.288690        4.486385        7.837698
 O         1.278496        4.477164        3.302018
 O         2.601561        5.417965        1.098658
 O         2.634889        0.846705        1.138710
 O         6.598322        0.912779        3.355524
 O         6.480608        0.786988        7.799224
 O         6.406076        5.477565        7.780992
 O         1.260343        1.734573        7.810441
 O         9.188310        1.649830        3.455095
 O        12.990959        4.499745        1.047993
 O        14.245689        5.411697        3.302212
 O        12.977342        4.492025        5.576146
 O        10.377388        1.103098        5.537354
 O        10.452131        5.518945        5.397538
 O        12.938522        1.771951        1.103547
 O        12.727468        1.854860        5.649451
 O         9.095667        4.541614        3.189543
 O        10.421170        5.420640        0.995375
 O        10.386660        0.812990        1.226631
 O        14.173790        0.886532        3.356174
 O        14.190022        0.877893        7.709713
 O        14.240243        5.393073        7.807394
 O         9.110765        1.223666        7.790123
 O         1.323814        1.790589       12.323431
 O         5.192320        4.511514       10.053855
 O         6.476574        5.422101       12.315828
 O         5.216848        4.501709       14.550487
 O         2.599167        0.878388       14.578979
 O         2.636963        5.421062       14.567734
 O         5.178679        1.739470       10.072935
 O         5.199872        1.762218       14.574493
 O         1.337535        4.479072       16.794386
 O         1.354785        4.525683       12.311705
 O         2.616529        5.424260       10.058139
 O         2.576954        0.853574       10.054359
 O         6.503402        0.884625       12.327663
 O         6.488974        0.856477       16.825541
 O         6.484905        5.422976       16.781870
 O         1.303223        1.738060       16.841366
 O         9.069591        9.078211       12.369457
 O        13.014125       11.837663       10.051368
 O        14.284098       12.694695       12.323783
 O        12.983917       11.754026       14.552259
 O        10.383666        8.168955       14.567734
 O        10.399787       12.681111       14.569911
 O        12.989438        9.076043       10.049112
 O        12.984859        9.015750       14.540142
 O         9.104679       11.799713       16.802807
 O         9.075155       11.816919       12.339788
 O        10.400425       12.667785       10.094411
 O        10.408866        8.243017       10.090470
 O        14.270288        8.139799       12.281304
 O        14.258537        8.142130       16.797295
 O        14.223480       12.705205       16.799528
 O         9.079658        9.072192       16.819506
 O         1.324836        9.069794       12.294599
 O         5.187092       11.827925       10.084008
 O         6.496369       12.750717       12.306952
 O         5.203471       11.839116       14.549630
 O         2.605582        8.162659       14.547505
 O         2.616765       12.740870       14.580470
 O         5.167681        9.087541       10.073942
 O         5.193012        9.084820       14.540507
 O         1.295861       11.827641       16.798407
 O         1.343623       11.807856       12.341944
 O         2.598148       12.706254       10.081295
 O         2.592794        8.167509       10.043651
 O         6.484706        8.168610       12.297668
 O         6.495804        8.156687       16.783278
 O         6.511090       12.719493       16.810789
 O         1.307971        9.079016       16.787674
 H         9.573129        1.465753       11.640900
 H         9.097775        2.728328       12.395916
 H        13.037879        3.508081       10.099393
 H        13.504614        4.764235       10.866429
 H        15.213678        5.114741       12.335088
 H        14.299349        6.358886       12.309441
 H        12.068563        4.836537       14.537715
 H        13.405301        4.819950       13.754735
 H         9.921833        1.142391       13.857559
 H        10.382885       14.467718       14.596613
 H         9.924492        5.124240       15.365355
 H        10.373493        6.393211       14.599076
 H        13.455164        1.382884        9.302807
 H        13.493591        1.371274       10.855290
 H        12.948076        2.719291       14.570202
 H        12.065960        1.450497       14.593923
 H         9.539965        4.799736       17.557158
 H         9.076710        3.521867       16.825445
 H         8.172875        4.809010       12.370263
 H         9.498647        4.824083       13.166907
 H        11.354332        5.175381       10.182463
 H        10.021898        5.176841       10.955078
 H        10.005440        1.086368        9.408848
 H        11.347763        1.143740       10.157570
 H        13.846624        1.166649       13.129018
 H        15.194890        1.181780       12.368881
 H        13.797690        1.153796       16.037886
 H        14.219694       14.479032       16.799137
 H        15.190896        5.063145       16.742817
 H        13.843055        5.068424       15.977220
 H         9.549894        1.405936       17.649059
 H         9.572426        1.392060       16.102919
 H         9.090121       10.031215        3.334542
 H         9.554134        8.808384        4.153300
 H        13.428439       12.077733        1.881857
 H        12.985370       10.801876        1.127764
 H        13.828885       12.393986        4.114096
 H        14.236202       13.679607        3.359900
 H        12.088213       12.014477        5.526245
 H        13.017143       10.784477        5.556623
 H         9.951123        8.508326        6.402658
 H        10.400805        7.298818        5.554144
 H        10.387347       13.576246        5.455760
 H         9.903759       12.341656        4.690520
 H        13.444121        8.709402        0.325793
 H        13.459075        8.704185        1.874852
 H        12.099008        8.754228        5.605955
 H        13.436818        8.712647        6.381347
 H         9.541571       12.028103        7.023808
 H         9.102786       10.804368        7.850509
 H         9.509637       12.135908        2.489513
 H         8.162663       12.152254        3.261145
 H        11.288216       12.351551        1.067922
 H         9.959216       12.383677        0.271392
 H         9.957491        8.471816        1.908712
 H        11.290852        8.479274        1.125805
 H        15.191025        8.474020        3.351106
 H        13.855870        8.466370        4.135835
 H        13.803244        8.440062        8.609784
 H        14.240086        7.169170        7.841726
 H        13.858102       12.377733        6.979626
 H        15.184287       12.420765        7.772367
 H         8.209455        8.738034        7.872279
 H         9.547876        8.736341        8.656363
 H         1.787999        8.773991        2.511311
 H         1.344284       10.030072        3.296143
 H         4.271829       12.085853        1.077820
 H         5.179178       10.831623        1.088608
 H         6.499240       13.698024        3.280136
 H         6.027079       12.441848        2.502285
 H         5.655352       12.087747        4.754826
 H         5.205563       10.811706        5.507946
 H         2.559412        7.183321        5.549902
 H         2.143993        8.447374        4.764860
 H         2.191747       12.386250        6.392838
 H         3.519664       12.374894        5.597665
 H         5.681635        8.730253        1.852890
 H         5.677333        8.736001        0.305708
 H         5.626704        8.712059        4.761860
 H         4.280884        8.718266        5.524894
 H         1.321712       10.850911        7.843482
 H         1.770032       12.103522        8.634766
 H         0.433072       12.148937        3.357967
 H         1.766091       12.133970        4.142890
 H         2.158645       12.410489        1.895067
 H         2.612719       13.669084        1.124806
 H         2.187250        8.497725        0.278686
 H         3.529426        8.489652        1.051662
 H         7.417509        8.437891        3.333080
 H         6.519547        7.180092        3.319497
 H         6.009127        8.540291        8.599442
 H         6.024568        8.530706        7.051950
 H         6.044898       12.312256        7.004017
 H         7.377779       12.327632        7.786824
 H         1.737990        8.746085        7.008183
 H         0.399646        8.733217        7.783226
 H         0.364608        1.467126        3.350612
 H         1.263480        2.719474        3.333304
 H         5.650930        4.856834        0.304498
 H         5.655348        4.849302        1.853167
 H         7.380774        5.087521        3.329623
 H         6.043965        5.084455        4.108799
 H         5.558784        4.860747        6.314419
 H         4.220392        4.828378        5.552383
 H         2.141226        1.146534        4.793766
 H         2.606734       14.490766        5.562242
 H         2.074897        5.070511        6.345223
 H         2.063587        5.067885        4.795211
 H         5.222796        2.749196        1.092612
 H         5.669682        1.476099        0.340454
 H         4.299040        1.461487        5.555528
 H         5.186795        2.724374        5.569017
 H         1.301006        3.524744        7.861126
 H         1.761651        4.793627        8.618640
 H         0.379122        4.820626        3.271281
 H         1.734204        4.816657        2.523643
 H         3.518970        5.121489        1.093940
 H         2.625841        6.380483        1.089479
 H         2.187585        1.176007        1.924779
 H         3.535679        1.185750        1.164231
 H         6.129993        1.248992        2.581879
 H         6.103163        1.222498        4.124413
 H         6.031726        1.127582        7.016673
 H         6.416844       14.427020        7.769582
 H         6.464854        6.441272        7.797062
 H         7.301004        5.170427        7.624929
 H         1.754135        1.421804        7.045020
 H         1.725335        1.408242        8.588660
 H         9.615423        1.313052        2.647357
 H         8.251776        1.389412        3.424174
 H        13.446316        4.837210        1.826977
 H        13.471907        4.822928        0.276996
 H        13.807013        5.106377        4.102180
 H        14.247306        6.375206        3.340066
 H        13.402973        4.831420        6.375379
 H        12.088588        4.869521        5.550466
 H         9.871408        1.367370        4.671110
 H        11.343768        1.458518        5.603445
 H         9.978530        5.207830        4.617125
 H         9.916857        5.196677        6.131439
 H        13.397027        1.451892        0.317198
 H        12.963199        2.735693        1.062368
 H        13.241292        1.508852        6.397978
 H        12.830346        2.826615        5.652052
 H         9.139119        3.590990        3.248287
 H         9.558640        4.804136        2.384774
 H        10.428953        6.383664        1.034929
 H        11.339764        5.130464        1.009676
 H        11.294535        1.134276        1.169225
 H        10.421689       14.452301        1.159282
 H        13.688293        1.230687        4.103113
 H        13.729650        1.212967        2.563306
 H        14.236201       14.516155        7.711658
 H        15.104272        1.186310        7.724864
 H        15.148534        5.073600        7.832821
 H        13.816177        5.060016        8.608805
 H         9.864996        1.284395        6.348512
 H         8.137431        1.142196        7.790630
 H         1.344780        2.753804       12.292080
 H         1.769001        1.478119       11.529067
 H         5.203860        3.550649       10.034368
 H         5.653654        4.811347        9.263446
 H         6.039838        5.122122       11.512395
 H         6.475227        6.384515       12.287305
 H         5.225503        3.539310       14.531308
 H         5.660871        4.805185       13.749716
 H         2.122237        1.200822       15.350448
 H         2.139804        1.213178       13.801623
 H         3.541437        5.089763       14.584768
 H         2.200102        5.073477       15.352093
 H         5.662361        1.438109       10.849366
 H         5.647699        1.404092        9.305751
 H         4.291343        1.444451       14.596650
 H         5.632401        1.432311       15.368684
 H         1.780484        4.791387       17.590633
 H         1.337002        3.517230       16.835943
 H         1.816356        4.861778       11.535142
 H         1.829186        4.850591       13.084098
 H         2.631073        6.386990       10.045390
 H         3.534278        5.129873       10.048730
 H         2.600864       14.492961       10.072051
 H         3.493645        1.148819       10.060101
 H         7.410399        1.207240       12.372344
 H         6.057827        1.203030       13.119736
 H         6.513594       14.495493       16.821741
 H         7.405527        1.150875       16.832603
 H         7.386379        5.084100       16.767160
 H         6.052685        5.087295       15.988181
 H         0.400006        1.405902       16.869373
 H         1.750707        1.409042       17.627275
 H         8.158444        8.768822       12.331457
 H         9.036311       10.039628       12.364340
 H        12.099724       12.137855       10.041007
 H        13.427388       12.168328        9.248806
 H        14.278128       13.657701       12.320413
 H        13.838490       12.412905       11.517882
 H        13.443366       12.060854       13.763435
 H        13.000867       10.790673       14.526645
 H         9.901804        8.494330       13.797584
 H         9.920765        8.500817       15.342880
 H         9.954316       12.366135       13.775625
 H        11.300843       12.342721       14.537636
 H        12.063074        8.798992       10.065372
 H        12.987538       10.037147       10.044707
 H        12.073248        8.703563       14.520970
 H        13.412692        8.687493       13.741637
 H         9.558501       12.087475       16.002378
 H         9.103770       10.835640       16.790434
 H         8.176765       12.162961       12.310706
 H         9.516158       12.114279       11.538069
 H        10.397666       13.629315       10.115526
 H         9.940652       12.393794        9.294700
 H        10.441532        7.271520       10.147765
 H         9.951101        8.534701       10.882730
 H        13.834436        8.471242       11.488241
 H        15.170356        8.480503       12.267322
 H        13.806399        8.434051       15.997501
 H        14.264122        7.179625       16.768787
 H        13.758110       12.360115       17.568058
 H        13.774949       12.357183       16.020649
 H         9.513624        8.738133       17.611341
 H         8.177409        8.735017       16.827234
 H         1.345860       10.031677       12.333852
 H         1.773669        8.754028       13.086096
 H         5.667629       12.166254       10.847283
 H         5.654521       12.127416        9.298367
 H         6.485376       13.713692       12.338889
 H         6.039181       12.444294       13.097488
 H         4.300289       12.172387       14.581664
 H         5.643673       12.154997       15.344950
 H         2.609836        7.199766       14.575288
 H         2.143111        8.460541       15.337496
 H         2.148950       12.440531       15.367229
 H         2.595730       13.703747       14.595509
 H         5.146462       10.049508       10.086741
 H         4.252660        8.787173       10.062916
 H         4.277206        8.787249       14.547630
 H         5.173661       10.047036       14.543187
 H         0.389636       12.151473       16.820543
 H         1.727759       12.148431       17.597500
 H         1.772099       12.147086       13.135077
 H         0.435203       12.127477       12.357696
 H         2.175160       12.381636       10.883653
 H         3.507759       12.389295       10.099641
 H         2.119351        8.491484        9.270797
 H         2.125088        8.493934       10.819963
 H         6.014222        8.496677       11.524021
 H         6.011168        8.498079       13.068151
 H         6.041906        8.465856       15.992390
 H         6.480039        7.193539       16.753832
 H         7.413401       12.384016       16.824711
 H         6.071629       12.377775       17.596460
 H         1.279240       10.041339       16.788082
 H         0.394620        8.773769       16.794048
381
 generated by VMD
 O         9.096544        1.761118       12.420226
 O        13.060392        4.466548       10.066577
 O        14.292888        5.396273       12.336644
 O        12.968269        4.491110       14.548550
 O        10.387593        0.827477       14.641037
 O        10.395082        5.430418       14.584002
 O        13.003582        1.693786       10.091105
 O        12.979080        1.755813       14.585203
 O         9.055553        4.482511       16.786860
 O         9.065926        4.454157       12.391780
 O        10.515236        5.623351       10.270133
 O        10.442569        0.811576       10.206422
 O        14.297320        0.831725       12.346971
 O        14.240289        0.839607       16.834684
 O        14.287580        5.395903       16.767628
 O         9.092359        1.727469       16.869249
 O         9.101219        9.070449        3.343173
 O        12.956172       11.765619        1.104059
 O        14.281068       12.720539        3.328047
 O        13.010731       11.751283        5.537926
 O        10.415517        8.261052        5.594596
 O        10.382550       12.628978        5.483399
 O        12.985048        9.039500        1.106161
 O        13.017065        9.051353        5.581248
 O         9.091039       11.772181        7.829164
 O         9.070434       11.827374        3.290447
 O        10.391932       12.706530        1.071823
 O        10.385870        8.151068        1.107398
 O        14.288006        8.138316        3.339246
 O        14.259551        8.132271        7.818288
 O        14.278755       12.750992        7.760499
 O         9.110636        9.075706        7.863569
 O         1.327656        9.067930        3.305228
 O         5.190025       11.795887        1.085066
 O         6.504360       12.737086        3.286547
 O         5.207171       11.776417        5.545958
 O         2.592078        8.146183        5.561798
 O         2.618665       12.713779        5.593436
 O         5.212311        9.068038        1.081372
 O         5.180135        9.062514        5.539395
 O         1.323217       11.814631        7.831218
 O         1.335829       11.815642        3.342067
 O         2.600607       12.706760        1.091752
 O         2.621801        8.167670        1.072242
 O         6.501826        8.143803        3.304787
 O         6.490567        8.216340        7.831526
 O         6.472785       12.654761        7.797309
 O         1.298351        9.079913        7.797551
 O         1.280493        1.755013        3.351945
 O         5.182320        4.524802        1.077961
 O         6.475560        5.410671        3.311419
 O         5.125582        4.501796        5.533276
 O         2.609374        0.851587        5.581082
 O         2.527324        5.409390        5.566014
 O         5.229354        1.786245        1.139062
 O         5.214536        1.759734        5.558190
 O         1.288690        4.486385        7.837698
 O         1.278496        4.477164        3.302018
 O         2.601561        5.417965        1.098658
 O         2.634889        0.846705        1.138710
 O         6.598322        0.912779        3.355524
 O         6.480608        0.786988        7.799224
 O         6.406076        5.477565        7.780992
 O         1.260343        1.734573        7.810441
 O         9.188310        1.649830        3.455095
 O        12.990959        4.499745        1.047993
 O        14.245689        5.411697        3.302212
 O        12.977342        4.492025        5.576146
 O        10.377388        1.103098        5.537354
 O        10.452131        5.518945        5.397538
 O        12.938522        1.771951        1.103547
 O        12.727468        1.854860        5.649451
 O         9.095667        4.541614        3.189543
 O        10.421170        5.420640        0.995375
 O        10.386660        0.812990        1.226631
 O        14.173790        0.886532        3.356174
 O        14.190022        0.877893        7.709713
 O        14.240243        5.393073        7.807394
 O         9.110765        1.223666        7.790123
 O         1.323814        1.790589       12.323431
 O         5.192320        4.511514       10.053855
 O         6.476574        5.422101       12.315828
 O         5.216848        4.501709       14.550487
 O         2.599167        0.878388       14.578979
 O         2.636963        5.421062       14.567734
 O         5.178679        1.739470       10.072935
 O         5.199872        1.762218       14.574493
 O         1.337535        4.479072       16.794386
 O         1.354785        4.525683       12.311705
 O         2.616529        5.424260       10.058139
 O         2.576954        0.853574       10.054359
 O         6.503402        0.884625       12.327663
 O         6.488974        0.856477       16.825541
 O         6.484905        5.422976       16.781870
 O         1.303223        1.738060       16.841366
 O         9.069591        9.078211       12.369457
 O        13.014125       11.837663       10.051368
 O        14.284098       12.694695       12.323783
 O        12.983917       11.754026       14.552259
 O        10.383666        8.168955       14.567734
 O        10.399787       12.681111       14.569911
 O        12.989438        9.076043       10.049112
 O        12.984859        9.015750       14.540142
 O         9.104679       11.799713       16.802807
 O         9.075155       11.816919       12.339788
 O        10.400425       12.667785       10.094411
 O        10.408866        8.243017       10.090470
 O        14.270288        8.139799       12.281304
 O        14.258537        8.142130       16.797295
 O        14.223480       12.705205       16.799528
 O         9.079658        9.072192       16.819506
 O         1.324836        9.069794       12.294599
 O         5.187092       11.827925       10.084008
 O         6.496369       12.750717       12.306952
 O         5.203471       11.839116       14.549630
 O         2.605582        8.162659       14.547505
 O         2.616765       12.740870       14.580470
 O         5.167681        9.087541       10.073942
 O         5.193012        9.084820       14.540507
 O         1.295861       11.827641       16.798407
 O         1.343623       11.807856       12.341944
 O         2.598148       12.706254       10.081295
 O         2.592794        8.167509       10.043651
 O         6.484706        8.168610       12.297668
 O         6.495804        8.156687       16.783278
 O         6.511090       12.719493       16.810789
 O         1.307971        9.079016       16.787674
 H         9.573129        1.465753       11.640900
 H         9.097775        2.728328       12.395916
 H        13.037879        3.508081       10.099393
 H        13.504614        4.764235       10.866429
 H        15.213678        5.114741       12.335088
 H        14.299349        6.358886       12.309441
 H        12.068563        4.836537       14.537715
 H        13.405301        4.819950       13.754735
 H         9.921833        1.142391       13.857559
 H        10.382885       14.467718       14.596613
 H         9.924492        5.124240       15.365355
 H        10.373493        6.393211       14.599076
 H        13.455164        1.382884        9.302807
 H        13.493591        1.371274       10.855290
 H        12.948076        2.719291       14.570202
 H        12.065960        1.450497       14.593923
 H         9.539965        4.799736       17.557158
 H         9.076710        3.521867       16.825445
 H         8.172875        4.809010       12.370263
 H         9.498647        4.824083       13.166907
 H        11.354332        5.175381       10.182463
 H        10.021898        5.176841       10.955078
 H        10.005440        1.086368        9.408848
 H        11.347763        1.143740       10.157570
 H        13.846624        1.166649       13.129018
 H        15.194890        1.181780       12.368881
 H        13.797690        1.153796       16.037886
 H        14.219694       14.479032       16.799137
 H        15.190896        5.063145       16.742817
 H        13.843055        5.068424       15.977220
 H         9.549894        1.405936       17.649059
 H         9.572426        1.392060       16.102919
 H         9.090121       10.031215        3.334542
 H         9.554134        8.808384        4.153300
 H        13.428439       12.077733        1.881857
 H        12.985370       10.801876        1.127764
 H        13.828885       12.393986        4.114096
 H        14.236202       13.679607        3.359900
 H        12.088213       12.014477        5.526245
 H        13.017143       10.784477        5.556623
 H         9.951123        8.508326        6.402658
 H        10.400805        7.298818        5.554144
 H        10.387347       13.576246        5.455760
 H         9.903759       12.341656        4.690520
 H        13.444121        8.709402        0.325793
 H        13.459075        8.704185        1.874852
 H        12.099008        8.754228        5.605955
 H        13.436818        8.712647        6.381347
 H         9.541571       12.028103        7.023808
 H         9.102786       10.804368        7.850509
 H         9.509637       12.135908        2.489513
 H         8.162663       12.152254        3.261145
 H        11.288216       12.351551        1.067922
 H         9.959216       12.383677        0.271392
 H         9.957491        8.471816        1.908712
 H        11.290852        8.479274        1.125805
 H        15.191025        8.474020        3.351106
 H        13.855870        8.466370        4.135835
 H        13.803244        8.440062        8.609784
 H        14.240086        7.169170        7.841726
 H        13.858102       12.377733        6.979626
 H        15.184287       12.420765        7.772367
 H         8.209455        8.738034        7.872279
 H         9.547876        8.736341        8.656363
 H         1.787999        8.773991        2.511311
 H         1.344284       10.030072        3.296143
 H         4.271829       12.085853        1.077820
 H         5.179178       10.831623        1.088608
 H         6.499240       13.698024        3.280136
 H         6.027079       12.441848        2.502285
 H         5.655352       12.087747        4.754826
 H         5.205563       10.811706        5.507946
 H         2.559412        7.183321        5.549902
 H         2.143993        8.447374        4.764860
 H         2.191747       12.386250        6.392838
 H         3.519664       12.374894        5.597665
 H         5.681635        8.730253        1.852890
 H         5.677333        8.736001        0.305708
 H         5.626704        8.712059        4.761860
 H         4.280884        8.718266        5.524894
 H         1.321712       10.850911        7.843482
 H         1.770032       12.103522        8.634766
 H         0.433072       12.148937        3.357967
 H         1.766091       12.133970        4.142890
 H         2.158645       12.410489        1.895067
 H         2.612719       13.669084        1.124806
 H         2.187250        8.497725        0.278686
 H         3.529426        8.489652        1.051662
 H         7.417509        8.437891        3.333080
 H         6.519547        7.180092        3.319497
 H         6.009127        8.540291        8.599442
 H         6.024568        8.530706        7.051950
 H         6.044898       12.312256        7.004017
 H         7.377779       12.327632        7.786824
 H         1.737990        8.746085        7.008183
 H         0.399646        8.733217        7.783226
 H         0.364608        1.467126        3.350612
 H         1.263480        2.719474        3.333304
 H         5.650930        4.856834        0.304498
 H         5.655348        4.849302        1.853167
 H         7.380774        5.087521        3.329623
 H         6.043965        5.084455        4.108799
 H         5.558784        4.860747        6.314419
 H         4.220392        4.828378        5.552383
 H         2.141226        1.146534        4.793766
 H         2.606734       14.490766        5.562242
 H         2.074897        5.070511        6.345223
 H         2.063587        5.067885        4.795211
 H         5.222796        2.749196        1.092612
 H         5.669682        1.476099        0.340454
 H         4.299040        1.461487        5.555528
 H         5.186795        2.724374        5.569017
 H         1.301006        3.524744        7.861126
 H         1.761651        4.793627        8.618640
 H         0.379122        4.820626        3.271281
 H         1.734204        4.816657        2.523643
 H         3.518970        5.121489        1.093940
 H         2.625841        6.380483        1.089479
 H         2.187585        1.176007        1.924779
 H         3.535679        1.185750        1.164231
 H         6.129993        1.248992        2.581879
 H         6.103163        1.222498        4.124413
 H         6.031726        1.127582        7.016673
 H         6.416844       14.427020        7.769582
 H         6.464854        6.441272        7.797062
 H         7.301004        5.170427        7.624929
 H         1.754135        1.421804        7.045020
 H         1.725335        1.408242        8.588660
 H         9.615423        1.313052        2.647357
 H         8.251776        1.389412        3.424174
 H        13.446316        4.837210        1.826977
 H        13.471907        4.822928        0.276996
 H        13.807013        5.106377        4.102180
 H        14.247306        6.375206        3.340066
 H        13.402973        4.831420        6.375379
 H        12.088588        4.869521        5.550466
 H         9.871408        1.367370        4.671110
 H        11.343768        1.458518        5.603445
 H         9.978530        5.207830        4.617125
 H         9.916857        5.196677        6.131439
 H        13.397027        1.451892        0.317198
 H        12.963199        2.735693        1.062368
 H        13.241292        1.508852        6.397978
 H        12.830346        2.826615        5.652052
 H         9.139119        3.590990        3.248287
 H         9.558640        4.804136        2.384774
 H        10.428953        6.383664        1.034929
 H        11.339764        5.130464        1.009676
 H        11.294535        1.134276        1.169225
 H        10.421689       14.452301        1.159282
 H        13.688293        1.230687        4.103113
 H        13.729650        1.212967        2.563306
 H        14.236201       14.516155        7.711658
 H        15.104272        1.186310        7.724864
 H        15.148534        5.073600        7.832821
 H        13.816177        5.060016        8.608805
 H         9.864996        1.284395        6.348512
 H         8.137431        1.142196        7.790630
 H         1.344780        2.753804       12.292080
 H         1.769001        1.478119       11.529067
 H         5.203860        3.550649       10.034368
 H         5.653654        4.811347        9.263446
 H         6.039838        5.122122       11.512395
 H         6.475227        6.384515       12.287305
 H         5.225503        3.539310       14.531308
 H         5.660871        4.805185       13.749716
 H         2.122237        1.200822       15.350448
 H         2.139804        1.213178       13.801623
 H         3.541437        5.089763       14.584768
 H         2.200102        5.073477       15.352093
 H         5.662361        1.438109       10.849366
 H         5.647699        1.404092        9.305751
 H         4.291343        1.444451       14.596650
 H         5.632401        1.432311       15.368684
 H         1.780484        4.791387       17.590633
 H         1.337002        3.517230       16.835943
 H         1.816356        4.861778       11.535142
 H         1.829186        4.850591       13.084098
 H         2.631073        6.386990       10.045390
 H         3.534278        5.129873       10.048730
 H         2.600864       14.492961       10.072051
 H         3.493645        1.148819       10.060101
 H         7.410399        1.207240       12.372344
 H         6.057827        1.203030       13.119736
 H         6.513594       14.495493       16.821741
 H         7.405527        1.150875       16.832603
 H         7.386379        5.084100       16.767160
 H         6.052685        5.087295       15.988181
 H         0.400006        1.405902       16.869373
 H         1.750707        1.409042       17.627275
 H         8.158444        8.768822       12.331457
 H         9.036311       10.039628       12.364340
 H        12.099724       12.137855       10.041007
 H        13.427388       12.168328        9.248806
 H        14.278128       13.657701       12.320413
 H        13.838490       12.412905       11.517882
 H        13.443366       12.060854       13.763435
 H        13.000867       10.790673       14.526645
 H         9.901804        8.494330       13.797584
 H         9.920765        8.500817       15.342880
 H         9.954316       12.366135       13.775625
 H        11.300843       12.342721       14.537636
 H        12.063074        8.798992       10.065372
 H        12.987538       10.037147       10.044707
 H        12.073248        8.703563       14.520970
 H        13.412692        8.687493       13.741637
 H         9.558501       12.087475       16.002378
 H         9.103770       10.835640       16.790434
 H         8.176765       12.162961       12.310706
 H         9.516158       12.114279       11.538069
 H        10.397666       13.629315       10.115526
 H         9.940652       12.393794        9.294700
 H        10.441532        7.271520       10.147765
 H         9.951101        8.534701       10.882730
 H        13.834436        8.471242       11.488241
 H        15.170356        8.480503       12.267322
 H        13.806399        8.434051       15.997501
 H        14.264122        7.179625       16.768787
 H        13.758110       12.360115       17.568058
 H        13.774949       12.357183       16.020649
 H         9.513624        8.738133       17.611341
 H         8.177409        8.735017       16.827234
 H         1.345860       10.031677       12.333852
 H         1.773669        8.754028       13.086096
 H         5.667629       12.166254       10.847283
 H         5.654521       12.127416        9.298367
 H         6.485376       13.713692       12.338889
 H         6.039181       12.444294       13.097488
 H         4.300289       12.172387       14.581664
 H         5.643673       12.154997       15.344950
 H         2.609836        7.199766       14.575288
 H         2.143111        8.460541       15.337496
 H         2.148950       12.440531       15.367229
 H         2.595730       13.703747       14.595509
 H         5.146462       10.049508       10.086741
 H         4.252660        8.787173       10.062916
 H         4.277206        8.787249       14.547630
 H         5.173661       10.047036       14.543187
 H         0.389636       12.151473       16.820543
 H         1.727759       12.148431       17.597500
 H         1.772099       12.147086       13.135077
 H         0.435203       12.127477       12.357696
 H         2.175160       12.381636       10.883653
 H         3.507759       12.389295       10.099641
 H         2.119351        8.491484        9.270797
 H         2.125088        8.493934       10.819963
 H         6.014222        8.496677       11.524021
 H         6.011168        8.498079       13.068151
 H         6.041906        8.465856       15.992390
 H         6.480039        7.193539       16.753832
 H         7.413401       12.384016       16.824711
 H         6.071629       12.377775       17.596460
 H         1.279240       10.041339       16.788082
 H         0.394620        8.773769       16.794048
