381
 generated by VMD
 O         9.068061        1.721288       12.329570
 O        13.001930        4.479008       10.054971
 O        14.208949        5.543342       12.278147
 O        12.978628        4.543030       14.497271
 O        10.420545        0.860931       14.551266
 O        10.376490        5.385664       14.560733
 O        13.012980        1.726928       10.050771
 O        12.992738        1.795505       14.522702
 O         9.060665        4.483227       16.762388
 O         9.060713        4.446168       12.341331
 O        10.363127        5.258283       10.090423
 O        10.387854        0.859497       10.085273
 O        14.266150        0.804797       12.285627
 O        14.310395        0.886456       16.767431
 O        14.288399        5.462201       16.748341
 O         9.107070        1.755944       16.796057
 O         9.030477        9.099368        3.237069
 O        12.997116       11.806873        1.109278
 O        14.267997       12.721506        3.357162
 O        12.981327       11.836560        5.615947
 O        10.522353        8.046911        5.116457
 O        10.397382       12.723173        5.554690
 O        12.959867        9.071308        1.030541
 O        13.119391        9.086805        5.477166
 O         9.053364       11.974302        7.851618
 O         9.087206       11.803435        3.329961
 O        10.397345       12.690053        1.116275
 O        10.393285        8.165579        1.018605
 O        14.283168        8.127513        3.235163
 O        14.366626        8.156312        7.797975
 O        14.254827       12.640938        8.004122
 O         1.296860        9.063128        3.301715
 O         5.189178       11.816154        1.102793
 O         6.484273       12.726307        3.362955
 O         5.174836       11.801083        5.588335
 O         2.548002        8.123985        5.525737
 O         2.561550       12.703982        5.602722
 O         5.187800        9.082153        1.081977
 O         5.145057        9.055421        5.514965
 O         1.312640       11.820082        7.851464
 O         1.308840       11.804056        3.333931
 O         2.615722       12.735783        1.108912
 O         2.614081        8.140781        1.096793
 O         6.482499        8.165625        3.284278
 O         6.349737        8.146545        7.806161
 O         6.424003       12.778353        7.847694
 O         1.334303        9.090405        7.834929
 O         1.313372        1.730276        3.330623
 O         5.186305        4.508715        1.104390
 O         6.493608        5.406106        3.314588
 O         5.183807        4.511618        5.559503
 O         2.625883        0.844985        5.567919
 O         2.584924        5.389764        5.556283
 O         5.208648        1.762138        1.098284
 O         5.187155        1.789053        5.520288
 O         1.307451        4.470994        7.790839
 O         1.304433        4.468873        3.319705
 O         2.609220        5.403878        1.101454
 O         2.618193        0.873433        1.076777
 O         6.519283        0.853113        3.312650
 O         6.440482        0.909875        7.793445
 O         6.434253        5.393915        7.829643
 O         1.305852        1.726189        7.791920
 O         9.111697        1.729380        3.286819
 O        12.991863        4.494483        1.040408
 O        14.260708        5.386469        3.293975
 O        12.970808        4.471529        5.532667
 O        10.397614        0.852801        5.551198
 O        10.395440        5.282085        5.535688
 O        12.991251        1.755914        1.069091
 O        12.984179        1.736339        5.572448
 O         9.020384        4.449207        7.785473
 O         9.060287        4.468757        3.275151
 O        10.387444        5.404489        1.048930
 O        10.415291        0.820923        1.058166
 O        14.256052        0.846589        3.332150
 O        14.263953        0.784524        7.811363
 O        14.270626        5.383574        7.802331
 O         9.058761        1.707756        7.799467
 O         1.292724        1.774147       12.326132
 O         5.142587        4.511398       10.073283
 O         6.487641        5.381476       12.299560
 O         5.206428        4.506623       14.560488
 O         2.649978        0.881811       14.528564
 O         2.610732        5.405458       14.547016
 O         5.146183        1.776124       10.048498
 O         5.241196        1.771960       14.528936
 O         1.331867        4.531775       16.792177
 O         1.279519        4.531676       12.296620
 O         2.544544        5.425775       10.047510
 O         2.560321        0.846643       10.062550
 O         6.483887        0.859406       12.260083
 O         6.511029        0.865824       16.790119
 O         6.474615        5.419188       16.806152
 O         1.351281        1.800242       16.761869
 O         9.048325        9.060220       12.428061
 O        13.105812       11.618504       10.181500
 O        14.229902       12.699774       12.340588
 O        12.968459       11.818821       14.586084
 O        10.394505        8.113129       14.616443
 O        10.392840       12.720441       14.593060
 O        12.985022        9.184731       10.384320
 O        13.021525        9.078769       14.555148
 O         9.101220       11.825236       16.822193
 O         9.076166       11.823705       12.360991
 O        10.385797       12.715713       10.097992
 O        10.737157        7.997903       10.679153
 O        14.190396        8.226373       12.328010
 O        14.286440        8.204803       16.768204
 O        14.281276       12.747240       16.800909
 O         9.036464        9.090439       16.786777
 O         1.342700        9.104878       12.332177
 O         5.175812       11.824972       10.091625
 O         6.475441       12.736086       12.345098
 O         5.195906       11.811735       14.592166
 O         2.643245        8.139446       14.568959
 O         2.622901       12.736370       14.582522
 O         5.154792        9.065862       10.097966
 O         5.208462        9.074630       14.556802
 O         1.332388       11.824586       16.819668
 O         1.321156       11.822992       12.371373
 O         2.611990       12.710024       10.091176
 O         2.607576        8.167655       10.061916
 O         6.487085        8.136598       12.319727
 O         6.475946        8.165681       16.806063
 O         6.509640       12.725587       16.812744
 O         1.348345        9.076047       16.816849
 H         8.160743        1.398128       12.282263
 H         9.514563        1.414596       11.533176
 H        13.417497        4.806601        9.249130
 H        12.075733        4.737486       10.022650
 H        13.773521        5.166231       11.504356
 H        13.762251        5.173182       13.050393
 H        12.053741        4.812772       14.527989
 H        12.979464        3.579334       14.504790
 H         9.933532        1.144666       13.769817
 H        10.400517       14.500278       14.551022
 H         9.903047        5.056872       15.334901
 H         9.900491        5.054817       13.791142
 H        13.033319        2.688641       10.030888
 H        13.451754        1.423753        9.247618
 H        13.414418        1.444954       13.732246
 H        12.089456        1.458732       14.522153
 H         9.041638        3.519981       16.781218
 H         8.147063        4.786518       16.785223
 H         8.146733        4.751778       12.317357
 H         9.032265        3.482356       12.352097
 H         9.896185        4.944965       10.875316
 H        10.396813        6.202466       10.181242
 H        10.421155       14.500261       10.092751
 H        11.300712        1.161905       10.065518
 H        13.843944        1.140020       11.485872
 H        15.167126        1.146947       12.287302
 H        15.213440        1.222555       16.745955
 H        13.871153        1.216372       15.977443
 H        13.829415        5.162115       15.958355
 H        14.272385        6.424685       16.734564
 H         9.577270        1.420606       17.568119
 H         9.582338        1.435011       16.023186
 H         9.547868        8.731669        3.974330
 H         9.483362        8.789576        2.449152
 H        13.462086       12.154180        0.342147
 H        13.459949       12.131660        1.889286
 H        13.818150       12.428606        4.156572
 H        14.248152       13.684996        3.368965
 H        12.064162       12.137277        5.624566
 H        13.380256       12.129500        6.436298
 H        10.496481        7.117143        5.332072
 H        11.400396        8.369746        5.299551
 H         9.929001       12.372410        4.788369
 H         9.909866       12.424774        6.329323
 H        12.042158        8.772839        1.028649
 H        12.943865       10.033381        1.065279
 H        13.537416        8.782925        6.282515
 H        13.058214       10.044168        5.541072
 H         8.130264       12.261519        7.852674
 H         9.002046       11.012570        7.869478
 H         8.175471       12.109456        3.347805
 H         9.051353       10.837059        3.319051
 H         9.950504       12.370037        1.910267
 H        11.301011       12.360643        1.146426
 H         9.909186        8.451640        0.237838
 H        10.376023        7.203838        1.023976
 H        13.843374        8.481642        4.017788
 H        13.792638        8.451988        2.472781
 H        15.272388        8.502577        7.827587
 H        13.927152        8.487765        8.568316
 H        15.178582       12.369212        7.928104
 H        14.253975       13.603985        7.952376
 H         0.381025        8.761751        3.262453
 H         1.277118       10.026185        3.305151
 H         5.660377       12.115644        0.318959
 H         5.197772       10.852875        1.081071
 H         6.016117       12.393469        4.136652
 H         6.016040       12.393765        2.591345
 H         4.256395       12.084446        5.591135
 H         5.165751       10.837775        5.579850
 H         2.113846        8.475214        6.306517
 H         2.076400        8.471692        4.759958
 H         2.580542       13.666147        5.565735
 H         2.118810       12.405409        4.801041
 H         4.287594        8.742592        1.112141
 H         5.637044        8.747779        1.869068
 H         4.248474        8.711839        5.474298
 H         5.609111        8.732756        4.735073
 H         1.764212       12.150989        7.064811
 H         1.799337       12.147141        8.616054
 H         0.406652       12.141518        3.317050
 H         1.750644       12.143910        2.548647
 H         3.531144       12.433092        1.109235
 H         2.641613       13.698511        1.099071
 H         2.151592        8.448883        1.884446
 H         2.603165        7.177854        1.125212
 H         6.524196        7.204977        3.300184
 H         7.395714        8.482599        3.292037
 H         7.221742        8.547983        7.836915
 H         5.946662        8.478508        6.993521
 H         6.394658       13.738796        7.791294
 H         6.000330       12.435732        7.054167
 H         1.358840       10.054315        7.848243
 H         1.812415        8.788523        8.616098
 H         0.409224        1.398628        3.312445
 H         1.746438        1.413237        2.531137
 H         5.653669        4.807938        1.894037
 H         5.209470        3.546145        1.119228
 H         7.395567        5.067441        3.328856
 H         6.064118        5.098457        4.119085
 H         5.605448        4.832723        6.364273
 H         4.277706        4.836682        5.570998
 H         3.528481        1.181702        5.530758
 H         2.179438        1.167673        4.777847
 H         2.560231        6.352477        5.528172
 H         2.130725        5.079802        4.765132
 H         5.681190        1.425381        1.868576
 H         5.679129        1.439238        0.323324
 H         5.666608        1.486649        4.741609
 H         5.197967        2.752881        5.503314
 H         1.765584        4.768632        6.996149
 H         1.325769        3.507779        7.777985
 H         0.388975        4.769644        3.311767
 H         1.281400        3.505883        3.321443
 H         3.516553        5.078085        1.124261
 H         2.170796        5.058258        1.886747
 H         2.197230        1.209782        0.279451
 H         3.524238        1.201728        1.072678
 H         7.439926        1.136426        3.307318
 H         6.525362       14.491398        3.339826
 H         5.988894        1.242065        7.010319
 H         5.959939        1.238263        8.560011
 H         7.348125        5.091207        7.810849
 H         6.461226        6.356648        7.811301
 H         1.793862        1.401950        7.026266
 H         1.763700        1.402119        8.574669
 H         9.589082        1.394278        2.520801
 H         9.581926        1.419344        4.068022
 H        13.449365        4.818010        1.824675
 H        13.463734        4.843634        0.278983
 H        14.249319        6.349906        3.301495
 H        13.791998        5.095047        4.083838
 H        13.394382        4.808097        6.326286
 H        12.050851        4.768012        5.555959
 H         9.919433        1.136618        6.336821
 H        10.385016       14.490535        5.559153
 H         9.887743        5.013722        6.305711
 H         9.907285        4.989470        4.760420
 H        13.463586        1.462890        0.283291
 H        12.996912        2.719130        1.044692
 H        12.965142        2.700088        5.568172
 H        12.065392        1.443522        5.573630
 H         9.480169        4.740766        8.574486
 H         9.039631        3.486387        7.802258
 H         9.529940        4.789658        2.498988
 H         9.089053        3.507204        3.240680
 H        11.292851        5.080143        1.026448
 H         9.949177        5.067248        0.262048
 H        11.329515        1.123779        1.062388
 H        10.436003       14.459738        1.079235
 H        13.788117        1.179204        4.106982
 H        13.790580        1.179547        2.558013
 H        13.824927        1.110885        7.017612
 H        15.169368        1.113527        7.778595
 H        15.179338        5.059772        7.788561
 H        14.325647        6.341330        7.783633
 H         8.145720        1.400902        7.825791
 H         9.490280        1.387885        8.595997
 H         1.778028        1.483938       13.106499
 H         1.294903        2.735992       12.336526
 H         4.242151        4.848470       10.043260
 H         5.586678        4.834562        9.280095
 H         6.000939        5.063592       11.531111
 H         6.017535        5.068011       13.079271
 H         5.636758        4.840930       15.355592
 H         4.300127        4.829673       14.578177
 H         2.661351       14.521391       14.551003
 H         3.569466        1.170223       14.525781
 H         2.136004        5.078410       13.777036
 H         2.141752        5.085947       15.326371
 H         4.232986        1.472549       10.054316
 H         5.119955        2.739183       10.059873
 H         5.684984        1.482754       13.724556
 H         5.242185        2.735179       14.520256
 H         1.766898        4.849727       17.591984
 H         0.430692        4.870314       16.807146
 H         0.388157        4.886879       12.276670
 H         1.718234        4.851675       11.499444
 H         2.108880        5.118496        9.245219
 H         2.552955        6.388239       10.018820
 H         2.111334        1.149957       10.857491
 H         2.570791       14.486173       10.097342
 H         6.457871       14.498111       12.265907
 H         6.012707        1.151752       11.472388
 H         6.085052        1.192246       15.990841
 H         7.417895        1.188738       16.772438
 H         6.468289        6.381974       16.828913
 H         6.020117        5.120336       17.601717
 H         1.357072        2.763556       16.753923
 H         1.817950        1.507592       15.972192
 H         9.437361        8.741804       13.249445
 H         8.142305        8.728118       12.385950
 H        13.514194       12.044236       10.956676
 H        13.537716       11.980125        9.385065
 H        14.227736       13.666604       12.331282
 H        13.776866       12.426247       13.148163
 H        12.059450       12.141335       14.616639
 H        13.411909       12.155645       15.373904
 H        10.419926        7.149021       14.604192
 H        11.303219        8.421992       14.616561
 H         9.915760       12.396372       13.821841
 H         9.917482       12.401970       15.369776
 H        13.029286       10.225148       10.300392
 H        13.505114        8.813835       11.185618
 H        13.480249        8.788102       15.356297
 H        12.998848       10.042593       14.589852
 H         9.088024       10.862354       16.833883
 H         9.561097       12.106546       17.621765
 H         9.059300       10.863552       12.336246
 H         9.513641       12.111964       11.554205
 H         9.918455       12.430963        9.298907
 H        11.258856       12.336473       10.054644
 H        12.071286        8.829484       10.442625
 H        10.056438        8.411498       11.244689
 H        14.190175        7.253072       12.315763
 H        13.780173        8.510947       13.165510
 H        15.196239        8.519491       16.815666
 H        13.833405        8.521414       17.560289
 H        15.193893       12.438549       16.804049
 H        14.314817       13.709922       16.787430
 H         8.131594        8.757388       16.777092
 H         9.479639        8.734870       16.011925
 H         0.430736        8.820154       12.346856
 H         1.329525       10.069922       12.352902
 H         5.662014       12.143037       10.857926
 H         5.639426       12.153332        9.311847
 H         6.041581       12.407316       13.139434
 H         7.379448       12.408570       12.367785
 H         5.663309       12.107394       15.381485
 H         5.211579       10.848739       14.599973
 H         2.623781        7.176300       14.540439
 H         2.188289        8.450427       13.781988
 H         2.192338       12.412601       15.381656
 H         3.526116       12.399410       14.602153
 H         5.192333       10.028084       10.076878
 H         5.586581        8.764638        9.290000
 H         4.308150        8.732973       14.541902
 H         5.642160        8.737109       13.765735
 H         1.789198       12.125759       17.613823
 H         1.348520       10.862103       16.839916
 H         0.421109       12.158620       12.392357
 H         1.764581       12.159277       13.160075
 H         2.185280       12.381033       10.886604
 H         3.523717       12.391092       10.110117
 H         3.519441        8.488867       10.084819
 H         2.184158        8.499398       10.857684
 H         6.041947        8.448784       11.523533
 H         6.473977        7.174298       12.284707
 H         6.008875        8.495217       16.031275
 H         6.009025        8.502615       17.580168
 H         6.523996       13.688592       16.804045
 H         7.428039       12.436186       16.819893
 H         1.808043        8.731898       17.592072
 H         1.817885        8.741790       16.046686
381
 generated by VMD
 O         9.068061        1.721288       12.329570
 O        13.001930        4.479008       10.054971
 O        14.208949        5.543342       12.278147
 O        12.978628        4.543030       14.497271
 O        10.420545        0.860931       14.551266
 O        10.376490        5.385664       14.560733
 O        13.012980        1.726928       10.050771
 O        12.992738        1.795505       14.522702
 O         9.060665        4.483227       16.762388
 O         9.060713        4.446168       12.341331
 O        10.363127        5.258283       10.090423
 O        10.387854        0.859497       10.085273
 O        14.266150        0.804797       12.285627
 O        14.310395        0.886456       16.767431
 O        14.288399        5.462201       16.748341
 O         9.107070        1.755944       16.796057
 O         9.030477        9.099368        3.237069
 O        12.997116       11.806873        1.109278
 O        14.267997       12.721506        3.357162
 O        12.981327       11.836560        5.615947
 O        10.522353        8.046911        5.116457
 O        10.397382       12.723173        5.554690
 O        12.959867        9.071308        1.030541
 O        13.119391        9.086805        5.477166
 O         9.053364       11.974302        7.851618
 O         9.087206       11.803435        3.329961
 O        10.397345       12.690053        1.116275
 O        10.393285        8.165579        1.018605
 O        14.283168        8.127513        3.235163
 O        14.366626        8.156312        7.797975
 O        14.254827       12.640938        8.004122
 O         1.296860        9.063128        3.301715
 O         5.189178       11.816154        1.102793
 O         6.484273       12.726307        3.362955
 O         5.174836       11.801083        5.588335
 O         2.548002        8.123985        5.525737
 O         2.561550       12.703982        5.602722
 O         5.187800        9.082153        1.081977
 O         5.145057        9.055421        5.514965
 O         1.312640       11.820082        7.851464
 O         1.308840       11.804056        3.333931
 O         2.615722       12.735783        1.108912
 O         2.614081        8.140781        1.096793
 O         6.482499        8.165625        3.284278
 O         6.349737        8.146545        7.806161
 O         6.424003       12.778353        7.847694
 O         1.334303        9.090405        7.834929
 O         1.313372        1.730276        3.330623
 O         5.186305        4.508715        1.104390
 O         6.493608        5.406106        3.314588
 O         5.183807        4.511618        5.559503
 O         2.625883        0.844985        5.567919
 O         2.584924        5.389764        5.556283
 O         5.208648        1.762138        1.098284
 O         5.187155        1.789053        5.520288
 O         1.307451        4.470994        7.790839
 O         1.304433        4.468873        3.319705
 O         2.609220        5.403878        1.101454
 O         2.618193        0.873433        1.076777
 O         6.519283        0.853113        3.312650
 O         6.440482        0.909875        7.793445
 O         6.434253        5.393915        7.829643
 O         1.305852        1.726189        7.791920
 O         9.111697        1.729380        3.286819
 O        12.991863        4.494483        1.040408
 O        14.260708        5.386469        3.293975
 O        12.970808        4.471529        5.532667
 O        10.397614        0.852801        5.551198
 O        10.395440        5.282085        5.535688
 O        12.991251        1.755914        1.069091
 O        12.984179        1.736339        5.572448
 O         9.020384        4.449207        7.785473
 O         9.060287        4.468757        3.275151
 O        10.387444        5.404489        1.048930
 O        10.415291        0.820923        1.058166
 O        14.256052        0.846589        3.332150
 O        14.263953        0.784524        7.811363
 O        14.270626        5.383574        7.802331
 O         9.058761        1.707756        7.799467
 O         1.292724        1.774147       12.326132
 O         5.142587        4.511398       10.073283
 O         6.487641        5.381476       12.299560
 O         5.206428        4.506623       14.560488
 O         2.649978        0.881811       14.528564
 O         2.610732        5.405458       14.547016
 O         5.146183        1.776124       10.048498
 O         5.241196        1.771960       14.528936
 O         1.331867        4.531775       16.792177
 O         1.279519        4.531676       12.296620
 O         2.544544        5.425775       10.047510
 O         2.560321        0.846643       10.062550
 O         6.483887        0.859406       12.260083
 O         6.511029        0.865824       16.790119
 O         6.474615        5.419188       16.806152
 O         1.351281        1.800242       16.761869
 O         9.048325        9.060220       12.428061
 O        13.105812       11.618504       10.181500
 O        14.229902       12.699774       12.340588
 O        12.968459       11.818821       14.586084
 O        10.394505        8.113129       14.616443
 O        10.392840       12.720441       14.593060
 O        12.985022        9.184731       10.384320
 O        13.021525        9.078769       14.555148
 O         9.101220       11.825236       16.822193
 O         9.076166       11.823705       12.360991
 O        10.385797       12.715713       10.097992
 O        10.737157        7.997903       10.679153
 O        14.190396        8.226373       12.328010
 O        14.286440        8.204803       16.768204
 O        14.281276       12.747240       16.800909
 O         9.036464        9.090439       16.786777
 O         1.342700        9.104878       12.332177
 O         5.175812       11.824972       10.091625
 O         6.475441       12.736086       12.345098
 O         5.195906       11.811735       14.592166
 O         2.643245        8.139446       14.568959
 O         2.622901       12.736370       14.582522
 O         5.154792        9.065862       10.097966
 O         5.208462        9.074630       14.556802
 O         1.332388       11.824586       16.819668
 O         1.321156       11.822992       12.371373
 O         2.611990       12.710024       10.091176
 O         2.607576        8.167655       10.061916
 O         6.487085        8.136598       12.319727
 O         6.475946        8.165681       16.806063
 O         6.509640       12.725587       16.812744
 O         1.348345        9.076047       16.816849
 H         8.160743        1.398128       12.282263
 H         9.514563        1.414596       11.533176
 H        13.417497        4.806601        9.249130
 H        12.075733        4.737486       10.022650
 H        13.773521        5.166231       11.504356
 H        13.762251        5.173182       13.050393
 H        12.053741        4.812772       14.527989
 H        12.979464        3.579334       14.504790
 H         9.933532        1.144666       13.769817
 H        10.400517       14.500278       14.551022
 H         9.903047        5.056872       15.334901
 H         9.900491        5.054817       13.791142
 H        13.033319        2.688641       10.030888
 H        13.451754        1.423753        9.247618
 H        13.414418        1.444954       13.732246
 H        12.089456        1.458732       14.522153
 H         9.041638        3.519981       16.781218
 H         8.147063        4.786518       16.785223
 H         8.146733        4.751778       12.317357
 H         9.032265        3.482356       12.352097
 H         9.896185        4.944965       10.875316
 H        10.396813        6.202466       10.181242
 H        10.421155       14.500261       10.092751
 H        11.300712        1.161905       10.065518
 H        13.843944        1.140020       11.485872
 H        15.167126        1.146947       12.287302
 H        15.213440        1.222555       16.745955
 H        13.871153        1.216372       15.977443
 H        13.829415        5.162115       15.958355
 H        14.272385        6.424685       16.734564
 H         9.577270        1.420606       17.568119
 H         9.582338        1.435011       16.023186
 H         9.547868        8.731669        3.974330
 H         9.483362        8.789576        2.449152
 H        13.462086       12.154180        0.342147
 H        13.459949       12.131660        1.889286
 H        13.818150       12.428606        4.156572
 H        14.248152       13.684996        3.368965
 H        12.064162       12.137277        5.624566
 H        13.380256       12.129500        6.436298
 H        10.496481        7.117143        5.332072
 H        11.400396        8.369746        5.299551
 H         9.929001       12.372410        4.788369
 H         9.909866       12.424774        6.329323
 H        12.042158        8.772839        1.028649
 H        12.943865       10.033381        1.065279
 H        13.537416        8.782925        6.282515
 H        13.058214       10.044168        5.541072
 H         8.130264       12.261519        7.852674
 H         9.002046       11.012570        7.869478
 H         8.175471       12.109456        3.347805
 H         9.051353       10.837059        3.319051
 H         9.950504       12.370037        1.910267
 H        11.301011       12.360643        1.146426
 H         9.909186        8.451640        0.237838
 H        10.376023        7.203838        1.023976
 H        13.843374        8.481642        4.017788
 H        13.792638        8.451988        2.472781
 H        15.272388        8.502577        7.827587
 H        13.927152        8.487765        8.568316
 H        15.178582       12.369212        7.928104
 H        14.253975       13.603985        7.952376
 H         0.381025        8.761751        3.262453
 H         1.277118       10.026185        3.305151
 H         5.660377       12.115644        0.318959
 H         5.197772       10.852875        1.081071
 H         6.016117       12.393469        4.136652
 H         6.016040       12.393765        2.591345
 H         4.256395       12.084446        5.591135
 H         5.165751       10.837775        5.579850
 H         2.113846        8.475214        6.306517
 H         2.076400        8.471692        4.759958
 H         2.580542       13.666147        5.565735
 H         2.118810       12.405409        4.801041
 H         4.287594        8.742592        1.112141
 H         5.637044        8.747779        1.869068
 H         4.248474        8.711839        5.474298
 H         5.609111        8.732756        4.735073
 H         1.764212       12.150989        7.064811
 H         1.799337       12.147141        8.616054
 H         0.406652       12.141518        3.317050
 H         1.750644       12.143910        2.548647
 H         3.531144       12.433092        1.109235
 H         2.641613       13.698511        1.099071
 H         2.151592        8.448883        1.884446
 H         2.603165        7.177854        1.125212
 H         6.524196        7.204977        3.300184
 H         7.395714        8.482599        3.292037
 H         7.221742        8.547983        7.836915
 H         5.946662        8.478508        6.993521
 H         6.394658       13.738796        7.791294
 H         6.000330       12.435732        7.054167
 H         1.358840       10.054315        7.848243
 H         1.812415        8.788523        8.616098
 H         0.409224        1.398628        3.312445
 H         1.746438        1.413237        2.531137
 H         5.653669        4.807938        1.894037
 H         5.209470        3.546145        1.119228
 H         7.395567        5.067441        3.328856
 H         6.064118        5.098457        4.119085
 H         5.605448        4.832723        6.364273
 H         4.277706        4.836682        5.570998
 H         3.528481        1.181702        5.530758
 H         2.179438        1.167673        4.777847
 H         2.560231        6.352477        5.528172
 H         2.130725        5.079802        4.765132
 H         5.681190        1.425381        1.868576
 H         5.679129        1.439238        0.323324
 H         5.666608        1.486649        4.741609
 H         5.197967        2.752881        5.503314
 H         1.765584        4.768632        6.996149
 H         1.325769        3.507779        7.777985
 H         0.388975        4.769644        3.311767
 H         1.281400        3.505883        3.321443
 H         3.516553        5.078085        1.124261
 H         2.170796        5.058258        1.886747
 H         2.197230        1.209782        0.279451
 H         3.524238        1.201728        1.072678
 H         7.439926        1.136426        3.307318
 H         6.525362       14.491398        3.339826
 H         5.988894        1.242065        7.010319
 H         5.959939        1.238263        8.560011
 H         7.348125        5.091207        7.810849
 H         6.461226        6.356648        7.811301
 H         1.793862        1.401950        7.026266
 H         1.763700        1.402119        8.574669
 H         9.589082        1.394278        2.520801
 H         9.581926        1.419344        4.068022
 H        13.449365        4.818010        1.824675
 H        13.463734        4.843634        0.278983
 H        14.249319        6.349906        3.301495
 H        13.791998        5.095047        4.083838
 H        13.394382        4.808097        6.326286
 H        12.050851        4.768012        5.555959
 H         9.919433        1.136618        6.336821
 H        10.385016       14.490535        5.559153
 H         9.887743        5.013722        6.305711
 H         9.907285        4.989470        4.760420
 H        13.463586        1.462890        0.283291
 H        12.996912        2.719130        1.044692
 H        12.965142        2.700088        5.568172
 H        12.065392        1.443522        5.573630
 H         9.480169        4.740766        8.574486
 H         9.039631        3.486387        7.802258
 H         9.529940        4.789658        2.498988
 H         9.089053        3.507204        3.240680
 H        11.292851        5.080143        1.026448
 H         9.949177        5.067248        0.262048
 H        11.329515        1.123779        1.062388
 H        10.436003       14.459738        1.079235
 H        13.788117        1.179204        4.106982
 H        13.790580        1.179547        2.558013
 H        13.824927        1.110885        7.017612
 H        15.169368        1.113527        7.778595
 H        15.179338        5.059772        7.788561
 H        14.325647        6.341330        7.783633
 H         8.145720        1.400902        7.825791
 H         9.490280        1.387885        8.595997
 H         1.778028        1.483938       13.106499
 H         1.294903        2.735992       12.336526
 H         4.242151        4.848470       10.043260
 H         5.586678        4.834562        9.280095
 H         6.000939        5.063592       11.531111
 H         6.017535        5.068011       13.079271
 H         5.636758        4.840930       15.355592
 H         4.300127        4.829673       14.578177
 H         2.661351       14.521391       14.551003
 H         3.569466        1.170223       14.525781
 H         2.136004        5.078410       13.777036
 H         2.141752        5.085947       15.326371
 H         4.232986        1.472549       10.054316
 H         5.119955        2.739183       10.059873
 H         5.684984        1.482754       13.724556
 H         5.242185        2.735179       14.520256
 H         1.766898        4.849727       17.591984
 H         0.430692        4.870314       16.807146
 H         0.388157        4.886879       12.276670
 H         1.718234        4.851675       11.499444
 H         2.108880        5.118496        9.245219
 H         2.552955        6.388239       10.018820
 H         2.111334        1.149957       10.857491
 H         2.570791       14.486173       10.097342
 H         6.457871       14.498111       12.265907
 H         6.012707        1.151752       11.472388
 H         6.085052        1.192246       15.990841
 H         7.417895        1.188738       16.772438
 H         6.468289        6.381974       16.828913
 H         6.020117        5.120336       17.601717
 H         1.357072        2.763556       16.753923
 H         1.817950        1.507592       15.972192
 H         9.437361        8.741804       13.249445
 H         8.142305        8.728118       12.385950
 H        13.514194       12.044236       10.956676
 H        13.537716       11.980125        9.385065
 H        14.227736       13.666604       12.331282
 H        13.776866       12.426247       13.148163
 H        12.059450       12.141335       14.616639
 H        13.411909       12.155645       15.373904
 H        10.419926        7.149021       14.604192
 H        11.303219        8.421992       14.616561
 H         9.915760       12.396372       13.821841
 H         9.917482       12.401970       15.369776
 H        13.029286       10.225148       10.300392
 H        13.505114        8.813835       11.185618
 H        13.480249        8.788102       15.356297
 H        12.998848       10.042593       14.589852
 H         9.088024       10.862354       16.833883
 H         9.561097       12.106546       17.621765
 H         9.059300       10.863552       12.336246
 H         9.513641       12.111964       11.554205
 H         9.918455       12.430963        9.298907
 H        11.258856       12.336473       10.054644
 H        12.071286        8.829484       10.442625
 H        10.056438        8.411498       11.244689
 H        14.190175        7.253072       12.315763
 H        13.780173        8.510947       13.165510
 H        15.196239        8.519491       16.815666
 H        13.833405        8.521414       17.560289
 H        15.193893       12.438549       16.804049
 H        14.314817       13.709922       16.787430
 H         8.131594        8.757388       16.777092
 H         9.479639        8.734870       16.011925
 H         0.430736        8.820154       12.346856
 H         1.329525       10.069922       12.352902
 H         5.662014       12.143037       10.857926
 H         5.639426       12.153332        9.311847
 H         6.041581       12.407316       13.139434
 H         7.379448       12.408570       12.367785
 H         5.663309       12.107394       15.381485
 H         5.211579       10.848739       14.599973
 H         2.623781        7.176300       14.540439
 H         2.188289        8.450427       13.781988
 H         2.192338       12.412601       15.381656
 H         3.526116       12.399410       14.602153
 H         5.192333       10.028084       10.076878
 H         5.586581        8.764638        9.290000
 H         4.308150        8.732973       14.541902
 H         5.642160        8.737109       13.765735
 H         1.789198       12.125759       17.613823
 H         1.348520       10.862103       16.839916
 H         0.421109       12.158620       12.392357
 H         1.764581       12.159277       13.160075
 H         2.185280       12.381033       10.886604
 H         3.523717       12.391092       10.110117
 H         3.519441        8.488867       10.084819
 H         2.184158        8.499398       10.857684
 H         6.041947        8.448784       11.523533
 H         6.473977        7.174298       12.284707
 H         6.008875        8.495217       16.031275
 H         6.009025        8.502615       17.580168
 H         6.523996       13.688592       16.804045
 H         7.428039       12.436186       16.819893
 H         1.808043        8.731898       17.592072
 H         1.817885        8.741790       16.046686
