381
 generated by VMD
 O         9.100619        1.641706       12.296664
 O        12.946469        4.476112        9.922634
 O        14.482884        5.717338       11.915175
 O        10.372787        0.829432       14.581552
 O         9.596969        5.651404       14.570590
 O        12.942986        1.722077       10.041585
 O        12.975248        1.663933       14.618941
 O         8.942381        4.478291       16.818644
 O         8.954874        4.384680       12.164729
 O        10.343771        5.441834       10.014354
 O        10.355047        0.785575       10.031078
 O        14.256413        0.870370       12.304617
 O        14.293276        0.788160       16.867258
 O        14.359654        5.450988       17.011351
 O         9.036515        1.756976       16.822481
 O         9.119462        9.074661        3.297264
 O        12.977571       11.805194        1.110203
 O        14.253560       12.753333        3.355437
 O        12.970569       11.825131        5.583602
 O        10.384863        8.170405        5.576095
 O        10.370585       12.719543        5.568582
 O        12.954738        9.064063        1.096331
 O        12.971280        9.086256        5.604764
 O         9.084605       11.791292        7.812828
 O         9.098652       11.810225        3.332898
 O        10.386794       12.681828        1.071355
 O        10.312545        8.177754        0.985513
 O        14.264197        8.202213        3.358900
 O        14.280066        8.195998        7.835145
 O        14.279396       12.718735        7.821492
 O         9.104311        9.056194        7.855062
 O         1.318670        9.099539        3.361933
 O         5.221011       11.794728        1.087258
 O         6.504039       12.721046        3.331243
 O         5.221993       11.789271        5.573152
 O         2.648106        8.160398        5.586306
 O         2.630704       12.725771        5.614374
 O         5.214871        9.053582        1.113083
 O         5.236061        9.050648        5.584178
 O         1.334038       11.790545        7.840381
 O         1.319001       11.844929        3.369487
 O         2.629016       12.714702        1.116833
 O         2.635794        8.179893        1.151648
 O         6.525937        8.166339        3.336314
 O         6.513349        8.132402        7.834881
 O         6.504091       12.702625        7.810509
 O         1.357931        9.061758        7.847913
 O         1.310186        1.779118        3.340050
 O         5.153270        4.487031        1.120045
 O         6.488292        5.422415        3.315942
 O         5.190906        4.530249        5.547827
 O         2.614896        0.871340        5.585098
 O         2.611474        5.428669        5.564854
 O         5.212979        1.751377        1.109321
 O         5.199836        1.790376        5.566076
 O         1.322506        4.501180        7.783116
 O         1.286587        4.512126        3.369548
 O         2.624328        5.433702        1.181387
 O         2.626565        0.856970        1.126786
 O         6.508368        0.854479        3.347777
 O         6.526084        0.835979        7.764386
 O         6.512992        5.388966        7.766418
 O         1.313560        1.752038        7.826185
 O         9.092263        1.751386        3.348712
 O        12.933197        4.525935        1.208588
 O        14.266232        5.452106        3.374975
 O        12.972664        4.518205        5.578645
 O        10.399995        0.848862        5.580266
 O        10.397093        5.425210        5.544528
 O        12.948783        1.766639        1.112109
 O        12.969110        1.781913        5.586171
 O         9.102422        4.512644        7.772013
 O         9.068590        4.488235        3.329387
 O        10.311526        5.458005        1.099277
 O        10.367991        0.842424        1.100968
 O        14.248273        0.885627        3.341343
 O        14.262033        0.849511        7.817144
 O        14.283346        5.437411        7.780811
 O         9.105968        1.772425        7.799781
 O         1.323768        1.735629       12.291373
 O         5.207904        4.443260        9.981345
 O         6.407685        5.358797       12.232800
 O         5.156992        4.494526       14.513094
 O         2.623889        0.847870       14.557986
 O         2.599373        5.402578       14.563414
 O         5.236559        1.707727       10.019642
 O         5.228650        1.748556       14.525768
 O         1.391648        4.489787       16.850359
 O         1.414399        4.487242       12.302994
 O         2.647011        5.414557       10.012466
 O         2.631289        0.833108       10.056132
 O         6.508658        0.779937       12.275738
 O         6.457328        0.804995       16.796478
 O         6.376777        5.392290       16.832310
 O         1.354168        1.745863       16.798958
 O         9.193059        9.053198       12.452250
 O        12.969676       11.868671       10.067388
 O        14.291228       12.749307       12.285199
 O        13.002416       11.812310       14.507081
 O        10.058132        8.140043       14.595793
 O        10.415479       12.716673       14.553174
 O        12.939898        9.152067       10.038568
 O        13.099499        9.044666       14.477077
 O         9.150825       11.773200       16.764486
 O         9.092101       11.706253       12.391699
 O        10.361520       12.638606       10.083462
 O        10.316382        8.178011       10.170973
 O        14.322928        8.285047       12.253397
 O        14.332297        8.225095       16.844353
 O        14.289866       12.635613       16.810875
 O         9.186420        9.122447       16.691711
 O         1.364563        9.116494       12.310297
 O         5.246679       11.775186       10.057323
 O         6.525590       12.628308       12.323351
 O         5.170905       11.760782       14.534393
 O         2.583212        8.130041       14.573658
 O         2.626802       12.735743       14.550118
 O         5.208489        9.038739       10.073199
 O         5.185015        9.018854       14.560863
 O         1.367382       11.810755       16.797138
 O         1.350774       11.847655       12.301280
 O         2.659321       12.699239       10.055316
 O         2.645151        8.145923       10.091568
 O         6.501705        8.073415       12.332474
 O         6.487051        8.175917       16.837704
 O         6.501947       12.652858       16.751751
 O         1.378356        9.081084       16.837198
 H         9.078486        2.601883       12.273104
 H         9.564283        1.390382       13.103590
 H        12.920344        3.516857        9.981283
 H        12.040022        4.784692        9.981794
 H        15.283018        5.225068       12.091994
 H        13.968791        5.229478       11.275580
 H        11.280803        1.155372       14.617001
 H         9.930889        1.167184       15.366752
 H         9.443336        5.172822       15.413324
 H         9.887017        7.168240       14.616422
 H        13.379026        1.429620       10.849092
 H        12.046793        1.373950       10.066467
 H        12.976652        2.622460       14.695567
 H        13.438498        1.359895       15.409910
 H         8.012743        4.727585       16.885235
 H         8.982657        3.513006       16.812027
 H         8.039047        4.688584       12.157243
 H         9.316204        4.734322       12.970230
 H         9.867667        5.055526       10.753051
 H         9.902743        5.125965        9.217179
 H        10.341477       14.426064       10.044189
 H         9.916889        1.071162       10.839941
 H        13.834477        1.188012       13.109629
 H        15.157671        1.210488       12.315238
 H        15.199958        1.108525       16.833570
 H        14.331518       14.429619       16.861221
 H        13.886418        5.078109       16.260506
 H        14.324811        6.407609       16.903059
 H         8.143366        1.398404       16.841080
 H         9.487974        1.433181       17.609550
 H         9.577730        8.770280        4.088176
 H         9.121914       10.037884        3.332939
 H        13.440191       12.084758        0.311762
 H        12.982236       10.842296        1.101078
 H        13.811924       12.443493        2.558125
 H        14.237133       13.716722        3.327042
 H        12.064176       12.148306        5.560758
 H        13.404463       12.158724        4.790258
 H        10.409277        7.207511        5.560011
 H        11.301188        8.467615        5.588943
 H        10.370819       13.683139        5.597269
 H         9.921955       12.417926        6.365111
 H        13.423541        8.751685        0.313091
 H        12.058093        8.726885        1.037924
 H        12.982241       10.049176        5.619754
 H        13.440952        8.791526        6.392878
 H         8.180402       12.123946        7.828489
 H         9.512547       12.101757        8.617148
 H         9.528083       12.146338        4.128126
 H         8.193964       12.140015        3.348033
 H        11.296601       12.364092        1.105125
 H         9.953336       12.372309        1.874137
 H        10.304453        7.212831        1.035052
 H         9.889236        8.491323        1.793346
 H        13.790300        8.522988        4.133882
 H        13.783248        8.513396        2.585943
 H        13.837754        8.534722        8.619543
 H        15.191272        8.503589        7.869367
 H        13.815729       12.420707        7.031645
 H        14.268896       13.682407        7.796348
 H         9.561204        8.748424        7.064798
 H         9.104165       10.018888        7.812500
 H         0.401745        8.803440        3.363447
 H         1.296324       10.062332        3.372042
 H         5.227005       10.831951        1.082712
 H         5.666983       12.076817        0.282926
 H         6.050045       12.427656        2.534886
 H         6.488105       13.684374        3.324161
 H         5.672064       12.091779        4.777487
 H         5.239230       10.826515        5.555943
 H         2.177282        8.476112        4.808116
 H         2.618729        7.197373        5.555066
 H         2.198495       12.384556        6.404676
 H         3.531741       12.387979        5.620414
 H         5.653439        8.731932        1.908876
 H         4.303802        8.736205        1.145408
 H         5.663042        8.722033        6.381895
 H         4.329687        8.722740        5.596389
 H         0.420497       12.095091        7.835271
 H         1.310093       10.827374        7.842944
 H         1.752751       12.169330        4.165713
 H         0.417721       12.183514        3.382936
 H         2.188239       12.396501        1.911858
 H         3.528746       12.374712        1.137442
 H         2.177869        8.500396        0.366639
 H         2.154446        8.522454        1.913208
 H         6.098210        8.484597        4.138980
 H         7.430042        8.497533        3.348729
 H         6.075153        8.454453        8.629079
 H         7.416253        8.466125        7.857133
 H         6.497129       13.665536        7.776638
 H         6.052404       12.396600        7.016100
 H         1.822802        8.732670        7.071881
 H         1.826629        8.728577        8.620420
 H         1.786578        1.448535        2.570680
 H         1.774912        1.448852        4.115788
 H         5.144816        3.523714        1.117750
 H         4.235392        4.784067        1.154946
 H         6.021029        5.122156        2.528937
 H         6.495115        6.384736        3.293613
 H         4.285362        4.860631        5.531852
 H         5.623112        4.857441        4.751412
 H         2.154521        1.167467        6.378279
 H         2.613512       14.511142        5.613299
 H         2.131186        5.092297        4.799345
 H         2.149003        5.094252        6.342089
 H         5.693344        1.430503        1.880144
 H         5.664230        1.409380        0.330904
 H         5.170208        2.753165        5.558639
 H         4.285696        1.485402        5.572813
 H         1.290929        3.539196        7.799425
 H         0.409962        4.811256        7.792443
 H         0.371031        4.814335        3.364165
 H         1.268027        3.549050        3.354668
 H         2.136410        5.135936        1.957563
 H         2.612727        6.396135        1.192221
 H         2.643867       14.496520        1.123106
 H         3.544016        1.148440        1.125095
 H         7.415794        1.177130        3.376929
 H         6.062304        1.196159        4.130315
 H         7.426978        1.175666        7.745323
 H         6.076939        1.185607        6.986986
 H         6.497165        6.351442        7.775629
 H         6.040688        5.110241        6.973186
 H         1.750366        1.424517        8.619182
 H         0.407862        1.424507        7.848475
 H         9.572058        1.426134        4.118371
 H         9.555408        1.419442        2.571793
 H        12.033141        4.852229        1.132845
 H        13.408332        4.860305        0.439120
 H        13.778211        5.148397        2.599192
 H        14.259890        6.414013        3.348481
 H        13.444256        4.858209        4.809546
 H        13.440825        4.853158        6.352559
 H        11.303274        1.185139        5.599459
 H         9.962729        1.188525        6.368745
 H        11.302132        5.091821        5.535791
 H         9.962714        5.084305        4.756223
 H        12.945175        2.729267        1.091145
 H        13.415340        1.470305        0.322916
 H        12.983478        2.745340        5.565370
 H        13.425305        1.483639        4.791382
 H         9.542851        4.837819        6.978619
 H         8.193871        4.831229        7.738233
 H         8.152618        4.784507        3.336312
 H         9.054289        3.524930        3.335963
 H         9.858130        5.091335        0.337486
 H         9.860862        5.109760        1.877401
 H        10.404746       14.483655        1.088961
 H        11.280276        1.155203        1.089576
 H        15.155905        1.205949        3.314763
 H        13.811527        1.216728        2.547532
 H        13.782023        1.165198        8.591340
 H        13.800773        1.192930        7.044293
 H        13.808309        5.113558        8.556565
 H        14.274294        6.397848        7.830086
 H         9.125687        2.735033        7.822405
 H         9.546773        1.457658        8.596228
 H         1.787271        1.416934       13.071515
 H         1.799632        1.398753       11.525823
 H         5.679911        4.746422        9.198049
 H         5.228928        3.479992        9.970388
 H         5.938323        5.033945       11.454103
 H         5.937115        5.039743       13.011370
 H         5.572979        4.818276       15.316866
 H         4.243070        4.807294       14.539599
 H         2.188882        1.183075       15.351144
 H         3.525746        1.180959       14.571185
 H         2.138398        5.067387       15.340217
 H         2.136376        5.065900       13.785601
 H         5.702436        1.372638       10.792546
 H         5.704837        1.379071        9.244760
 H         5.219918        2.710650       14.493975
 H         5.675608        1.442531       13.730710
 H         0.488457        4.821484       16.896557
 H         1.830313        4.820230       17.639894
 H         1.377573        3.526710       12.279626
 H         1.862856        4.771658       11.502438
 H         3.542203        5.066010        9.964200
 H         2.183439        5.093506        9.232164
 H         2.661150       14.472646       10.050051
 H         3.545557        1.132980       10.038097
 H         6.514681       14.420283       12.296878
 H         7.431213        1.056747       12.290019
 H         6.448826       14.446269       16.756165
 H         6.022771        1.121269       15.997054
 H         5.912510        5.093567       17.625069
 H         6.401661        6.351201       16.867765
 H         1.802194        1.455181       17.599045
 H         1.349910        2.709161       16.823704
 H         9.156277       10.026041       12.414150
 H         9.624216        8.745237       11.636576
 H        13.457511       12.191847       10.834021
 H        13.436320       12.184934        9.285260
 H        14.304247       13.714491       12.302025
 H        15.209134       12.457383       12.290068
 H        13.030472       10.852776       14.471824
 H        13.463300       12.131047       13.721776
 H         9.698580        8.581752       15.452950
 H         9.706292        8.541820       13.722157
 H        11.336331       12.431575       14.534312
 H        10.421699       13.682964       14.563331
 H        12.909626       10.115431       10.039204
 H        12.035036        8.836889       10.076589
 H        12.262007        8.604127       14.491159
 H        13.550705        8.729239       13.673235
 H         9.589670       12.110901       17.556557
 H         9.622848       12.140975       16.006624
 H         8.186416       12.041445       12.385043
 H         9.536636       12.100748       13.152033
 H         9.951981       12.304110       10.883782
 H        11.285348       12.360740       10.099453
 H         9.878901        8.483184        9.367829
 H        10.335173        7.214579       10.113107
 H        14.376365        7.315913       12.140698
 H        13.855137        8.608790       11.478898
 H        13.949622        8.511803       16.013073
 H        15.245800        8.534631       16.842966
 H        15.199932       12.321582       16.782900
 H        13.866787       12.342942       15.998638
 H         9.616179        8.789016       17.499666
 H         9.193882       10.096643       16.736111
 H         1.764138        8.762251       13.110925
 H         0.446179        8.817980       12.302376
 H         5.694612       12.081782        9.261205
 H         5.246833       10.812804       10.030156
 H         6.019992       12.316340       13.082087
 H         6.064964       12.318961       11.535094
 H         4.263403       12.089473       14.542060
 H         5.125044       10.799828       14.540906
 H         3.503467        8.406184       14.565482
 H         2.584651        7.165052       14.568290
 H         2.164641       12.446690       13.755287
 H         2.617260       13.700689       14.540247
 H         4.297931        8.717072       10.090466
 H         5.631214        8.704096       10.867129
 H         5.654068        8.668574       13.798608
 H         5.646226        8.707101       15.344676
 H         1.824401       12.146182       17.575449
 H         1.824415       12.161144       16.024887
 H         1.366440       10.883701       12.296228
 H         1.816723       12.132127       11.507773
 H         3.560977       12.363583       10.031131
 H         2.213881       12.368507        9.267706
 H         2.182073        8.450564       10.880177
 H         2.617925        7.182236       10.098880
 H         7.412642        8.359268       12.330664
 H         6.500339        7.108862       12.283580
 H         7.375510        8.524818       16.855621
 H         6.042892        8.501978       17.632456
 H         6.059210       12.320024       15.963097
 H         7.410005       12.343321       16.721529
 H         1.398542       10.043538       16.796196
 H         1.808033        8.756603       16.038061
