381
 generated by VMD
 O         9.012769        1.704776       12.390027
 O        12.840631        5.419164       10.020567
 O        14.329817        5.444256       12.358107
 O        12.972577        4.473321       14.561195
 O        10.386023        0.817941       14.603310
 O        10.379243        5.390632       14.568683
 O        12.983089        1.745851       14.630128
 O         9.063060        4.520492       16.829199
 O         9.041131        4.447039       12.343970
 O        10.209702        5.435288       10.050951
 O        10.180950        0.708757       10.113765
 O        14.305649        0.759851       12.422741
 O        14.258086        0.868454       16.838701
 O        14.277326        5.447700       16.792305
 O         9.097534        1.781827       16.828644
 O         9.094562        9.048366        3.358727
 O        12.991355       11.832187        1.123612
 O        14.212190       12.846409        3.333416
 O        12.905650       11.831358        5.583541
 O        10.417546        8.062586        5.567681
 O        10.311510       12.697691        5.614532
 O        12.981848        9.093878        1.119539
 O        12.964323        9.068898        5.577763
 O         9.069774       11.720284        7.805695
 O         9.079342       11.797965        3.348425
 O        10.384676       12.713254        1.120201
 O        10.406192        8.162430        1.114555
 O        14.281529        8.148899        3.363400
 O        14.272994        8.105094        7.801320
 O        14.191351       12.607557        7.885792
 O         9.105046        8.990993        7.777451
 O         1.313648        9.105741        3.351695
 O         5.172736       11.840412        1.069497
 O         6.492576       12.715375        3.303065
 O         5.205064       11.782911        5.528467
 O         2.621183        8.182670        5.576906
 O         2.606947       12.703037        5.588885
 O         5.224846        9.091130        1.090017
 O         5.215303        9.059102        5.570228
 O         1.296657       11.759770        7.817003
 O         1.243744       11.854826        3.354940
 O         2.563795       12.734993        1.088292
 O         2.639596        8.191054        1.134572
 O         6.496255        8.163770        3.327275
 O         6.498863        8.146199        7.825263
 O         6.506214       12.689889        7.773918
 O         1.326397        9.020856        7.835348
 O         1.354003        1.761510        3.270189
 O         5.245188        4.496068        1.084933
 O         6.553725        5.423793        3.287928
 O         5.242768        4.513520        5.514186
 O         2.747622        0.857812        5.513086
 O         2.670157        5.446420        5.541834
 O         5.216412        1.751576        1.059823
 O         5.283472        1.779742        5.510895
 O         1.422592        4.532764        7.788780
 O         1.346929        4.511279        3.330817
 O         2.661219        5.443781        1.097304
 O         2.607424        0.865309        1.049402
 O         6.543254        0.848179        3.272379
 O         6.458126        0.828298        7.814113
 O         6.488764        5.411559        7.790500
 O         1.513260        1.775861        7.757400
 O         9.108994        1.734653        3.358989
 O        12.966580        4.509014        1.090768
 O        14.281537        5.436334        3.320991
 O        13.011581        4.335269        5.601629
 O        10.316240        0.866679        5.687160
 O        10.517956        5.306140        5.639113
 O        12.986594        1.749975        1.112961
 O        13.253564        1.900470        5.466286
 O         9.083431        4.516672        7.794082
 O         9.151166        4.471763        3.370755
 O        10.382291        5.425762        1.120828
 O        10.419374        0.850853        1.121233
 O        14.154132        0.934884        3.346490
 O        14.646008        0.813245        7.279427
 O        14.355498        5.390699        7.575034
 O         9.016335        1.785745        7.805598
 O         1.339836        1.737235       12.294192
 O         5.195370        4.492772       10.017569
 O         6.490212        5.401462       12.282776
 O         5.217603        4.549054       14.550565
 O         2.611369        0.881764       14.551527
 O         2.627489        5.426000       14.557467
 O         5.197516        1.751324       10.071942
 O         5.185620        1.815095       14.575792
 O         1.324727        4.523663       16.801210
 O         1.372918        4.477565       12.300041
 O         2.611300        5.433938       10.061199
 O         2.634493        0.838376       10.023068
 O         6.436603        0.866205       12.329913
 O         6.514233        0.857417       16.784012
 O         6.481991        5.449033       16.795134
 O         1.315293        1.777618       16.772985
 O         9.079798        9.037468       12.320724
 O        12.885245       11.688588       10.164878
 O        14.260649       12.605382       12.381897
 O        12.901218       11.765837       14.610513
 O        10.374343        8.137192       14.556420
 O        10.310148       12.686955       14.567288
 O        12.954344        8.959719       10.048853
 O        12.961020        9.035762       14.542407
 O         9.044624       11.790350       16.838469
 O         8.977319       11.757174       12.370939
 O        10.263855       12.558814       10.093630
 O        10.326613        8.152196       10.052258
 O        14.285361        8.152933       12.334175
 O        14.281678        8.181013       16.809797
 O        14.223342       12.719892       16.800137
 O         9.108704        9.054320       16.798260
 O         1.361252        9.079212       12.335666
 O         5.188259       11.807465       10.025043
 O         6.405620       12.741353       12.309458
 O         5.170127       11.815835       14.548786
 O         2.625837        8.169924       14.595703
 O         2.583427       12.737750       14.587100
 O         5.223848        9.069070       10.082402
 O         5.220825        9.078277       14.563920
 O         1.279302       11.828094       16.806524
 O         1.333090       11.820810       12.344527
 O         2.610343       12.705082       10.059856
 O         2.620580        8.173929       10.092988
 O         6.499826        8.143518       12.323820
 O         6.503245        8.191998       16.800060
 O         6.474596       12.723294       16.774349
 O         1.330105        9.094586       16.837372
 H         9.517286        1.378319       13.141803
 H         9.448982        1.365039       11.601078
 H        13.383916        5.308092       10.800137
 H        13.374608        5.208641        9.263147
 H        15.211812        5.063585       12.345226
 H        13.867421        5.063988       13.109338
 H        12.068238        4.803296       14.565165
 H        13.402102        4.832459       15.342099
 H        11.289557        1.150482       14.603970
 H         9.959832        1.174894       15.388058
 H        10.364666        6.353340       14.570312
 H         9.916142        5.107409       15.362162
 H        12.985289        2.707843       14.567330
 H        13.433975        1.416909       13.845135
 H         8.161620        4.859096       16.834667
 H         9.496451        4.860615       17.617611
 H         9.520789        4.756300       13.118126
 H         9.064776        3.484420       12.370346
 H        11.168486        5.291551       10.068473
 H         9.845207        5.051056       10.852877
 H        11.108130        0.966197       10.164212
 H         9.836142        1.112626        9.312150
 H        14.278579       14.397633       12.396396
 H        13.761597        1.037413       11.680358
 H        15.165610        1.188301       16.797945
 H        13.816725        1.201463       16.044846
 H        13.811173        5.147808       17.576855
 H        14.262790        6.410993       16.809849
 H         9.095730        2.745144       16.844881
 H         9.556972        1.488584       17.620367
 H         9.077009       10.011019        3.363341
 H         8.175939        8.759034        3.348385
 H        13.424818       12.127091        0.313857
 H        13.002597       10.868803        1.109296
 H        13.791008       12.482820        2.543484
 H        15.111570       12.498092        3.340302
 H        13.331372       12.178477        4.795816
 H        11.994299       12.145589        5.573210
 H         9.943887        8.382380        6.345547
 H         9.939753        8.400785        4.803399
 H         9.879390       12.359448        6.411018
 H        10.285787       13.655047        5.674466
 H        13.414287        8.752362        1.907828
 H        12.078368        8.758752        1.131613
 H        12.057201        8.743008        5.574958
 H        12.915192       10.029073        5.578814
 H         9.086587       10.756318        7.803771
 H         9.494075       11.998828        8.627884
 H         8.173663       12.125737        3.340589
 H         9.485719       12.129833        4.156111
 H        11.289531       12.385348        1.134283
 H         9.952712       12.379264        1.913870
 H         9.936616        8.463843        1.899549
 H        10.388146        7.199874        1.136727
 H        15.182731        8.490879        3.376564
 H        13.841190        8.491405        4.149437
 H        13.791055        8.378620        8.592019
 H        13.799240        8.471255        7.049093
 H        13.725634       12.348805        7.082814
 H        14.179213       13.554913        7.905054
 H         8.194662        8.678881        7.813174
 H         9.534041        8.687314        8.587962
 H         1.794622        8.782225        2.581801
 H         1.785543        8.778704        4.125631
 H         5.604176       12.170403        0.273158
 H         4.266483       12.162799        1.053465
 H         6.018947       12.379676        4.072237
 H         6.020658       12.394067        2.526850
 H         5.190101       10.818768        5.539404
 H         4.288641       12.073951        5.553700
 H         2.167129        8.461159        6.380394
 H         2.621891        7.219703        5.581886
 H         2.648126       13.663248        5.607220
 H         2.144199       12.416158        6.383370
 H         5.218331       10.053609        1.067651
 H         5.678078        8.799455        0.290264
 H         4.307854        8.736671        5.555113
 H         5.643617        8.726829        4.773782
 H         0.374877       12.027955        7.850483
 H         1.297930       10.795884        7.825399
 H         1.265501       10.891789        3.365207
 H         1.725596       12.142516        4.137499
 H         2.095648       12.416502        1.865756
 H         2.088878       12.400588        0.318349
 H         2.665777        7.228840        1.118229
 H         3.555340        8.490395        1.117877
 H         6.051746        8.472639        2.530031
 H         6.503836        7.201911        3.288213
 H         6.476334        7.183529        7.795867
 H         6.044611        8.454720        7.034921
 H         7.404858       12.341917        7.767759
 H         6.073068       12.357311        6.981542
 H         0.422135        8.689121        7.856153
 H         1.758924        8.712692        8.639891
 H         0.455212        1.438531        3.246670
 H         1.784616        1.439116        2.466093
 H         5.246855        3.533871        1.048152
 H         5.676209        4.809084        0.280768
 H         7.455669        5.091345        3.293433
 H         6.127116        5.074363        2.496895
 H         5.687900        4.857656        4.732677
 H         4.341928        4.853675        5.495485
 H         3.654676        1.187172        5.470374
 H         2.295032        1.181003        4.730648
 H         2.181504        5.109024        4.785048
 H         2.227877        5.113600        6.331056
 H         4.309179        1.432235        1.031392
 H         5.654153        1.419617        0.266840
 H         5.288432        2.743598        5.496994
 H         5.746129        1.482949        4.719794
 H         1.833283        4.853765        8.601631
 H         1.469476        3.574152        7.820931
 H         0.435310        4.815949        3.312877
 H         1.325492        3.550248        3.301515
 H         2.231222        5.111379        1.890119
 H         3.561318        5.101429        1.106032
 H         2.154180        1.167180        0.252802
 H         2.583074       14.503783        1.038150
 H         6.510468       14.486825        3.266931
 H         6.073385        1.146260        2.485059
 H         6.471075       14.467513        7.781204
 H         6.032609        1.131882        7.006974
 H         6.033233        5.080146        7.010667
 H         6.017281        5.070213        8.558689
 H         1.921935        1.424181        8.561133
 H         2.032619        1.467363        7.006346
 H         8.200032        1.410849        3.338346
 H         9.501884        1.411515        4.173558
 H        13.435998        4.811992        1.873021
 H        12.991467        3.547930        1.100108
 H        14.276899        6.402825        3.349309
 H        13.831078        5.136090        4.108636
 H        13.503899        4.735891        6.350809
 H        12.097064        4.667927        5.644803
 H         9.848279        1.207597        6.470007
 H        11.212295        1.161984        5.766812
 H        10.007455        5.041004        6.417964
 H        10.495578        6.270011        5.620253
 H        13.430473        1.432244        0.313645
 H        12.077935        1.424796        1.080167
 H        13.158889        2.937197        5.524105
 H        13.595704        1.545833        4.576680
 H         9.490195        4.831184        8.615381
 H         8.182054        4.854701        7.792728
 H         9.136507        3.508785        3.381895
 H         9.609447        4.748608        4.169168
 H         9.969010        5.078578        1.918010
 H        11.285715        5.094227        1.114470
 H         9.960457        1.140894        1.916427
 H        10.391878       14.489358        1.126207
 H        14.159949       14.564977        3.340374
 H        13.728371        1.219004        2.517046
 H        15.529945        1.174708        7.496171
 H        13.809141        1.528116        6.195259
 H        15.270158        5.106963        7.668973
 H        14.347898        6.353491        7.639771
 H         8.100725        1.486834        7.821258
 H         9.007843        2.749774        7.828704
 H         1.755082        1.410878       11.490912
 H         0.436510        1.401047       12.295677
 H         4.283924        4.801970       10.039783
 H         5.167007        3.530581       10.038774
 H         7.389015        5.050197       12.287100
 H         6.066194        5.075785       11.483241
 H         4.309953        4.871700       14.531384
 H         5.642257        4.853853       13.740636
 H         2.185715        1.189369       13.742779
 H         3.513666        1.218458       14.538950
 H         2.605772        6.388562       14.579055
 H         2.168702        5.125028       15.348071
 H         5.666921        1.439492       10.854743
 H         5.665423        1.411350        9.302886
 H         5.210891        2.778042       14.592561
 H         5.657228        1.506091       15.355453
 H         0.422787        4.861986       16.817379
 H         1.765451        4.857485       17.587923
 H         1.820454        4.773543       13.098317
 H         1.370248        3.514766       12.314179
 H         2.605146        6.396570       10.098917
 H         2.162847        5.119509       10.854890
 H         2.647371       14.476877       10.040810
 H         3.552857        1.130686       10.061177
 H         5.998281        1.207729       13.116114
 H         7.352957        1.167604       12.376263
 H         6.531410       14.496290       16.764261
 H         7.430321        1.154346       16.793917
 H         6.040067        5.157911       15.989052
 H         6.475813        6.412236       16.780066
 H         1.327766        2.740452       16.762598
 H         1.768623        1.485373       15.973069
 H         9.051734       10.000729       12.316822
 H         9.532635        8.763947       11.514819
 H        13.314938       12.037891        9.382728
 H        11.982848       12.024776       10.147902
 H        13.761827       12.304842       11.615605
 H        13.775800       12.301616       13.156030
 H        11.984778       12.059777       14.583610
 H        12.890948       10.802467       14.591718
 H        11.283216        8.454289       14.522136
 H         9.937119        8.462487       13.761336
 H        10.333297       13.650373       14.586009
 H         9.864705       12.404471       15.371542
 H        13.412041        8.651723       10.837093
 H        12.940228        9.921061       10.105345
 H        13.438066        8.717860       15.314106
 H        13.442419        8.720026       13.767536
 H         9.083323       10.827641       16.842680
 H         9.516278       12.090448       17.621197
 H         8.083660       12.113119       12.376635
 H         9.426856       12.106994       13.148045
 H        10.244007       13.521677       10.098655
 H         9.807478       12.281897       10.895112
 H        10.278420        7.188488       10.070702
 H        11.263035        8.380179       10.053860
 H        15.194065        8.465834       12.326308
 H        14.326427        7.188649       12.350501
 H        15.186187        8.511448       16.832640
 H        13.843536        8.519320       17.596256
 H        14.218734       13.682260       16.776426
 H        13.747772       12.412667       16.018995
 H         9.576108        8.727613       16.020605
 H         9.576760        8.720562       17.569643
 H         1.805297        8.782518       13.136355
 H         1.361856       10.042008       12.358653
 H         5.656958       12.095039        9.235146
 H         5.221300       10.844513       10.032226
 H         5.979068       12.445117       11.499426
 H         6.405806       13.705198       12.293043
 H         4.263625       12.141059       14.551638
 H         5.581255       12.157700       13.746027
 H         3.532469        8.493428       14.612429
 H         2.194219        8.504498       15.388227
 H         2.586128       13.700391       14.558719
 H         2.136830       12.439624       13.785894
 H         5.685543        8.729335        9.309054
 H         5.694229        8.737686       10.855377
 H         5.213902       10.040828       14.525436
 H         5.667221        8.768041       13.768246
 H         1.719973       12.159020       16.014950
 H         0.370901       12.146976       16.772449
 H         0.412246       12.108374       12.327940
 H         1.749498       12.150005       11.542620
 H         2.166866       12.362453        9.278742
 H         3.513134       12.368180       10.032800
 H         3.527257        8.497494       10.106655
 H         2.194083        8.510226       10.889978
 H         7.419868        8.431957       12.323020
 H         6.514019        7.180390       12.313366
 H         6.075362        8.522535       16.001539
 H         7.415181        8.500723       16.776445
 H         7.371207       12.370656       16.778322
 H         6.044756       12.393106       15.977288
 H         1.792712        8.805771       17.630342
 H         1.327790       10.057818       16.845757
