381
 generated by VMD
 O         8.841812        2.006510       12.834841
 O        12.949564        4.541671       10.057101
 O        14.262897        5.393117       12.346011
 O        12.924179        4.411943       14.597077
 O        10.537707        0.796094       14.370506
 O        10.387282        5.438183       14.598400
 O        13.223476        1.778629       10.029081
 O        12.813929        1.738334       14.582737
 O         9.051072        4.502196       16.802956
 O         9.043899        4.609012       12.353026
 O        10.345027        5.448834       10.129935
 O        14.378241        0.856481       12.309864
 O        14.213202        0.858499       16.691818
 O        14.238997        5.389332       16.772476
 O         9.032927        1.710710       16.835783
 O         9.082988        9.074124        3.327879
 O        13.010082       11.801054        1.081806
 O        14.272235       12.703561        3.335950
 O        12.945028       11.803202        5.548681
 O        10.377190        8.164165        5.591140
 O        10.360730       12.713468        5.567694
 O        12.991394        9.061720        1.085339
 O        12.977922        9.054836        5.571919
 O         9.074908       11.794662        7.815248
 O         9.106957       11.810238        3.324472
 O        10.427899       12.701432        1.054093
 O        10.387250        8.191820        1.071965
 O        14.285060        8.173609        3.327845
 O        14.276879        8.122176        7.807669
 O        14.294191       12.663321        7.777905
 O         9.067208        9.049301        7.835474
 O         1.340246        9.070020        3.350517
 O         5.210271       11.759461        1.104634
 O         6.507808       12.707618        3.335198
 O         5.209705       11.813445        5.596284
 O         2.615540        8.171314        5.592655
 O         2.616377       12.698001        5.594817
 O         5.200480        9.023317        1.088211
 O         5.189766        9.079221        5.588881
 O         1.331010       11.777807        7.818199
 O         1.336254       11.815331        3.346413
 O         2.623093       12.695871        1.097546
 O         2.600726        8.135277        1.103356
 O         6.504389        8.169254        3.359447
 O         6.476440        8.149837        7.827617
 O         6.492170       12.723517        7.810206
 O         1.321245        9.038672        7.846982
 O         1.332017        1.756343        3.287625
 O         5.189667        4.508257        1.127789
 O         6.499432        5.423986        3.351425
 O         5.169185        4.472773        5.561799
 O         2.582882        0.829118        5.524155
 O         2.602052        5.426532        5.570776
 O         5.230449        1.754497        1.081380
 O         5.164794        1.741251        5.524125
 O         1.296566        4.520269        7.815577
 O         1.300289        4.494150        3.352252
 O         2.583313        5.393629        1.117044
 O         2.627592        0.839022        1.039255
 O         6.489746        0.849611        3.322438
 O         6.381421        0.827282        7.764943
 O         6.433813        5.424020        7.809179
 O         1.363098        1.773516        7.784629
 O         9.076777        1.784120        3.318036
 O        12.976855        4.523059        1.094683
 O        14.265074        5.429914        3.312171
 O        12.947240        4.482712        5.546633
 O        10.415737        0.825058        5.543169
 O        10.386354        5.445672        5.562382
 O        12.971660        1.799762        1.036010
 O        13.017584        1.755526        5.529446
 O         9.091512        4.653924        7.863003
 O         9.089671        4.514907        3.334148
 O        10.392529        5.448147        1.084513
 O        10.426947        0.831750        1.112584
 O        14.289963        0.838509        3.267179
 O        14.363213        0.814755        7.726396
 O        14.233922        5.387198        7.790693
 O         8.782627        1.857948        7.579288
 O         1.391870        1.781155       12.327087
 O         5.158904        4.514802       10.075678
 O         6.458843        5.470533       12.323538
 O         5.193206        4.509330       14.586438
 O         2.593073        0.824671       14.594846
 O         2.607286        5.431089       14.580107
 O         5.157159        1.761036       10.084640
 O         5.155628        1.742354       14.607928
 O         1.284226        4.484672       16.795227
 O         1.309911        4.504648       12.334839
 O         2.571774        5.416845       10.073125
 O         2.595998        0.854463       10.032061
 O         6.346516        0.833060       12.313866
 O         6.506129        0.795106       16.827751
 O         6.482835        5.397259       16.840828
 O         1.257188        1.734037       16.779444
 O         9.062298        9.103112       12.371487
 O        13.080073       11.689340       10.064951
 O        14.361798       12.691906       12.330450
 O        12.943970       11.904739       14.486697
 O        10.424243        8.178165       14.580654
 O        10.494698       12.954794       14.381234
 O        12.991084        8.976976       10.063647
 O        12.999688        9.107560       14.513832
 O         9.160023       11.887659       16.740582
 O         9.075487       11.829500       12.444507
 O        10.462807       12.547467       10.082982
 O        10.363052        8.206300       10.092988
 O        14.272796        8.135439       12.305283
 O        14.256283        8.138459       16.770912
 O        14.248619       12.729025       16.767418
 O         9.087752        9.115342       16.765793
 O         1.322826        9.049755       12.318913
 O         5.213253       11.807457       10.041222
 O         6.459700       12.681375       12.303782
 O         5.199664       11.810067       14.562938
 O         2.598413        8.174335       14.575759
 O         2.612633       12.701688       14.574389
 O         5.217928        9.071501       10.080020
 O         5.177023        9.073750       14.580366
 O         1.293627       11.807377       16.809290
 O         1.403881       11.780471       12.313980
 O         2.626682       12.711714       10.041650
 O         2.626155        8.144150       10.098815
 O         6.473066        8.191784       12.340973
 O         6.510029        8.133914       16.781950
 O         6.504550       12.669308       16.793968
 O         1.305738        9.068995       16.823080
 H         9.998497        1.224097       13.679775
 H         8.945768        2.953279       12.615810
 H        12.039842        4.853517       10.098098
 H        13.387013        4.853068       10.853692
 H        15.167086        5.058849       12.355749
 H        13.827115        5.034960       13.121790
 H        12.039233        4.793127       14.603161
 H        13.379911        4.760148       15.373804
 H        10.531780       14.351480       14.307177
 H        11.486615        1.191225       14.432649
 H         9.896385        5.109659       15.359173
 H         9.900692        5.167212       13.813139
 H        12.362817        1.348237       10.087782
 H        13.055345        2.727814       10.029157
 H        12.853783        2.710257       14.596719
 H        13.319867        1.420445       15.349559
 H         9.024607        3.544176       16.825706
 H         8.133972        4.802985       16.824471
 H         9.498280        4.889213       11.545804
 H         8.143182        4.952446       12.306330
 H        10.345825        6.410841       10.101785
 H         9.900766        5.156586        9.322596
 H        13.828947        1.162766       13.027251
 H        13.961942        1.182699       11.500543
 H        14.243376       14.496872       16.731094
 H        15.130901        1.159230       16.713745
 H        13.818371        5.088838       17.585901
 H        15.147078        5.066177       16.792643
 H         9.456679        1.362712       16.062376
 H         8.127262        1.363893       16.834173
 H         9.547035        8.781807        2.537467
 H         9.105632       10.037441        3.318768
 H        13.019131       10.837706        1.100769
 H        13.460564       12.097816        1.881397
 H        13.796129       12.414677        4.123181
 H        14.261743       13.666473        3.337301
 H        12.028461       12.101664        5.565642
 H        12.927193       10.840857        5.553212
 H         9.925935        8.466874        4.797559
 H        10.372802        7.200162        5.559899
 H         9.907618       12.419918        6.365305
 H        10.369930       13.678677        5.592131
 H        13.459035        8.733961        1.862053
 H        13.454986        8.721525        0.313671
 H        13.412853        8.728412        6.366975
 H        12.072834        8.726443        5.596871
 H         9.551089       12.076473        8.602163
 H         9.077243       10.832320        7.829196
 H         9.587387       12.136600        2.559321
 H         9.562498       12.145237        4.107293
 H        11.341466       12.394135        1.075412
 H        10.458574       13.663361        1.089181
 H         9.956181        8.535541        0.283706
 H        11.296840        8.508338        1.055985
 H        13.841366        8.492013        4.122035
 H        15.188028        8.507854        3.360415
 H        13.811950        8.405252        8.602934
 H        14.254992        7.158878        7.807847
 H        13.837609       12.338780        8.560424
 H        13.794664       12.353424        7.015252
 H         9.510195        8.721681        7.045802
 H         8.165047        8.713732        7.808126
 H         1.791651        8.776223        4.150274
 H         1.352930       10.033059        3.364853
 H         5.663823       12.051864        0.308759
 H         5.212785       10.796168        1.083108
 H         7.413981       12.382975        3.314865
 H         6.070446       12.358685        2.552475
 H         5.684245       12.146537        6.368288
 H         5.676462       12.142939        4.822376
 H         3.518418        8.507781        5.612717
 H         2.182582        8.482632        6.394951
 H         2.183578       12.355281        6.385100
 H         3.526639       12.383212        5.616216
 H         4.295368        8.694390        1.073837
 H         5.633444        8.692940        0.295069
 H         5.655015        8.781115        4.800410
 H         5.212378       10.042722        5.575487
 H         1.307359       10.815125        7.831454
 H         0.412823       12.073475        7.798192
 H         0.428637       12.136999        3.367807
 H         1.766101       12.140596        4.145626
 H         2.187251       12.386039        1.899736
 H         3.522113       12.352528        1.119582
 H         2.577632        7.172829        1.130815
 H         2.160221        8.446949        1.901968
 H         6.068965        8.477341        2.558845
 H         7.407415        8.504742        3.331860
 H         6.441976        7.186602        7.804792
 H         6.018290        8.459999        7.039672
 H         7.411252       12.435558        7.824481
 H         6.497460       13.689850        7.804223
 H         0.418753        8.700425        7.857436
 H         1.752399        8.713335        8.643411
 H         1.812014        1.432616        2.519228
 H         1.782343        1.406813        4.065836
 H         5.625693        4.843932        1.919362
 H         4.279859        4.822312        1.152374
 H         7.414468        5.123425        3.346133
 H         6.524476        6.386552        3.365561
 H         5.645274        4.780276        4.784357
 H         5.179133        3.509004        5.532723
 H         2.580682       14.469144        5.576010
 H         2.154386        1.152517        6.324483
 H         3.513677        5.114101        5.572704
 H         2.635845        6.389017        5.576948
 H         5.670990        1.455098        1.886332
 H         5.226497        2.716947        1.110990
 H         5.577406        1.411707        6.333930
 H         4.260526        1.411551        5.527566
 H         1.736400        4.856879        7.028139
 H         0.385831        4.833098        7.782467
 H         1.764276        4.798612        4.140524
 H         1.322524        3.531210        3.365439
 H         2.115997        5.063718        0.343838
 H         2.114081        5.062182        1.891323
 H         3.541287        1.140907        1.048857
 H         2.652185       14.478409        1.060641
 H         6.486044       14.489115        3.345838
 H         6.027899        1.145747        4.116671
 H         5.984562        1.154569        8.574503
 H         7.274801        1.212209        7.718372
 H         5.978177        5.083818        8.584878
 H         5.984392        5.060877        7.039273
 H         1.317668        2.735252        7.785476
 H         0.453910        1.450099        7.759259
 H         8.176840        1.441645        3.315630
 H         9.517587        1.425165        2.544073
 H        12.074776        4.859521        1.114482
 H        13.416509        4.852971        1.888019
 H        15.176888        5.119450        3.331980
 H        14.297810        6.392416        3.323576
 H        12.979511        3.519188        5.523652
 H        13.413401        4.795642        4.765970
 H         9.979251        1.181129        4.765995
 H        11.315313        1.162756        5.541824
 H         9.942804        5.094901        4.783658
 H        11.281385        5.089919        5.550205
 H        13.415634        1.507790        0.235560
 H        12.988462        2.764041        1.038682
 H        13.486378        1.414753        6.299101
 H        13.479104        1.421744        4.755184
 H         8.176280        4.941946        7.815876
 H         9.522903        4.952038        7.057613
 H         9.095469        3.551260        3.312649
 H         9.546997        4.815206        2.543796
 H         9.925612        5.146368        0.300798
 H        10.375706        6.411104        1.063943
 H        11.319611        1.195445        1.085025
 H         9.967299        1.163003        0.338896
 H        13.850121        1.181609        2.484918
 H        15.194196        1.170822        3.248411
 H        13.933107        1.138841        8.524736
 H        14.320869       14.455854        7.768099
 H        13.762013        5.074851        8.570351
 H        13.759981        5.053392        7.021535
 H         9.412034        1.514854        6.948079
 H         8.957879        2.789884        7.689343
 H         1.823172        1.432039       13.113602
 H         0.485374        1.454838       12.351454
 H         5.595313        4.859705       10.859546
 H         4.253738        4.843032       10.094530
 H         6.436292        6.434472       12.347331
 H         6.011594        5.158938       13.115976
 H         5.187691        3.547926       14.604025
 H         5.646511        4.797354       15.385737
 H         3.507087        1.127337       14.616080
 H         2.617523       14.463162       14.583367
 H         3.524050        5.138336       14.581711
 H         2.621693        6.394178       14.578150
 H         5.138214        2.723115       10.074526
 H         4.240096        1.464777       10.055304
 H         5.573043        1.401527       13.810130
 H         5.642903        1.390109       15.358454
 H         1.296023        3.522796       16.760773
 H         1.755569        4.798541       16.015888
 H         1.355431        3.541687       12.353925
 H         1.772605        4.818915       13.117980
 H         2.103652        5.095027        9.294819
 H         2.102940        5.084209       10.845155
 H         2.134496        1.198338        9.257954
 H         2.141618        1.191120       10.810402
 H         5.923952        1.168437       11.509446
 H         7.212135        1.221512       12.348631
 H         6.046834        1.115919       17.614651
 H         6.474921       14.433873       16.852182
 H         6.019410        5.116784       17.638781
 H         6.483117        6.360701       16.840509
 H         1.737858        1.403316       16.011040
 H         1.735840        1.414188       17.552294
 H         8.160829        8.764628       12.387788
 H         9.512431        8.748343       13.143731
 H        12.168798       11.999701       10.092000
 H        13.508407       12.059609       10.841300
 H        15.278834       12.396610       12.324809
 H        14.376472       13.652372       12.286098
 H        13.415396       12.190596       15.276917
 H        13.472000       12.192995       13.728160
 H        11.337562        8.482985       14.551508
 H        10.449316        7.216583       14.598384
 H         9.989619       12.539021       13.655722
 H        11.387643       12.563648       14.382798
 H        13.016125        9.941893       10.067400
 H        12.060801        8.727498       10.070621
 H        13.453614        8.799237       13.720060
 H        12.994714       10.067122       14.480230
 H         9.625954       12.250978       15.991304
 H         9.626925       12.187352       17.532248
 H         8.159913       12.122682       12.383436
 H         9.056574       10.864804       12.436847
 H        10.622932       13.497578       10.117705
 H         9.986950       12.341204       10.891015
 H         9.893127        8.521648        9.312721
 H         9.894525        8.546023       10.860002
 H        13.810632        8.405811       11.502026
 H        14.262497        7.172680       12.317487
 H        13.815855        8.460160       15.978395
 H        14.233954        7.176838       16.736439
 H        13.824033       12.396494       17.566769
 H        15.154798       12.400106       16.789576
 H         9.112346       10.074714       16.732254
 H         9.565314        8.802103       15.989207
 H         0.416581        8.725039       12.284384
 H         1.769232        8.710905       11.534306
 H         4.308522       12.137382       10.015184
 H         5.654283       12.143707        9.251432
 H         6.428043       13.641386       12.272435
 H         6.031995       12.372538       11.495448
 H         5.615683       12.123187       13.751457
 H         4.293715       12.138711       14.556151
 H         2.128942        8.493855       13.796989
 H         2.124891        8.502453       15.347413
 H         2.134056       12.368340       15.340620
 H         2.167370       12.361906       13.789373
 H         5.223445       10.034351       10.041394
 H         5.666774        8.761844        9.285213
 H         4.259508        8.778399       14.582716
 H         5.157551       10.036767       14.581036
 H         1.759384       12.107712       17.597538
 H         1.305104       10.844323       16.836697
 H         1.840999       12.083698       11.510395
 H         1.389583       10.817512       12.282822
 H         2.156810       12.404627        9.258217
 H         2.599540       13.674230       10.020444
 H         3.540802        8.444487       10.087954
 H         2.643670        7.180853       10.087420
 H         6.021788        8.520283       11.554456
 H         5.988091        8.522911       13.104407
 H         6.061350        8.471606       15.998981
 H         7.405371        8.485644       16.761669
 H         6.066378       12.351911       15.995193
 H         7.416328       12.369497       16.755505
 H         1.742489        8.728486       17.611843
 H         0.405344        8.728896       16.834255
