381
 generated by VMD
 O         9.077929        1.676866       12.325452
 O        12.971392        4.543854       10.097666
 O        14.269463        5.466219       12.350637
 O        12.937271        4.568959       14.600369
 O        10.309213        0.683754       14.584791
 O        10.318925        5.424901       14.585938
 O        12.856669        1.800060       10.002019
 O        12.808010        1.827717       14.762586
 O         9.085332        4.489500       16.834351
 O         9.091578        4.429875       12.345815
 O        10.366754        5.370734       10.107687
 O        10.275385        0.828850        9.996085
 O        14.334169        0.901085       16.883415
 O        14.248631        5.508834       16.796789
 O         9.047765        1.747077       16.800554
 O         9.086530        9.085533        3.320379
 O        12.968546       11.796240        1.092997
 O        14.280116       12.693402        3.332472
 O        12.971020       11.798935        5.553647
 O        10.371632        8.164924        5.561146
 O        10.389946       12.724117        5.556464
 O        12.957329        9.059730        1.096980
 O        12.964163        9.057386        5.571229
 O         9.117289       11.765059        7.774959
 O         9.105187       11.832138        3.319090
 O        10.418877       12.763697        1.075374
 O        10.368317        8.151357        1.095113
 O        14.260401        8.183054        3.328485
 O        14.228805        8.081924        7.795497
 O        14.236113       12.721206        7.794530
 O         9.087405        9.025772        7.823761
 O         1.311025        9.091504        3.323330
 O         5.222062       11.807505        1.104757
 O         6.505738       12.715162        3.351515
 O         5.217544       11.802905        5.592600
 O         2.593401        8.162769        5.565813
 O         2.625394       12.696029        5.580401
 O         5.202496        9.066573        1.086442
 O         5.181782        9.061695        5.578300
 O         1.296184       11.776728        7.803870
 O         1.345724       11.829085        3.319979
 O         2.644694       12.766431        1.093713
 O         2.609064        8.157320        1.091427
 O         6.490081        8.170177        3.338009
 O         6.493763        8.142379        7.814851
 O         6.549572       12.711051        7.806875
 O         1.268274        9.039193        7.797354
 O         1.290406        1.768293        3.354447
 O         5.221885        4.520060        1.119382
 O         6.501389        5.427517        3.382972
 O         5.183452        4.490296        5.604451
 O         2.611415        0.843676        5.552332
 O         2.600839        5.420098        5.581607
 O         5.209094        1.779606        1.117151
 O         5.189472        1.751183        5.569447
 O         1.343266        4.500600        7.844456
 O         1.295263        4.501320        3.344034
 O         2.623322        5.426322        1.137624
 O         2.618061        0.892961        1.120451
 O         6.511200        0.847743        3.336164
 O         6.514984        0.856068        7.773193
 O         6.487417        5.413136        7.836698
 O         1.290672        1.761261        7.782067
 O         9.085344        1.774121        3.289276
 O        12.977784        4.539506        1.092412
 O        14.239501        5.435089        3.348203
 O        12.969722        4.514894        5.598984
 O        10.375727        0.866535        5.525696
 O        10.388237        5.424951        5.584041
 O        12.971888        1.802712        1.106518
 O        12.959171        1.783046        5.577357
 O         9.090297        4.538826        7.826424
 O         9.082600        4.515288        3.353383
 O        10.376321        5.400472        1.121941
 O        10.403592        0.885926        1.067374
 O        14.236333        0.844950        3.345090
 O        14.254022        0.849007        7.825090
 O        14.277260        5.363467        7.842077
 O         9.071081        1.803812        7.743163
 O         1.682480        2.042418       12.251881
 O         5.216866        4.512708       10.081908
 O         6.517799        5.399597       12.323545
 O         5.238239        4.498018       14.586245
 O         2.664131        0.796758       14.601475
 O         2.665750        5.455882       14.600440
 O         5.245715        1.781412       10.035179
 O         5.246100        1.752126       14.584445
 O         1.321501        4.570522       16.820387
 O         1.323245        4.649732       12.311981
 O         2.640059        5.442324       10.066988
 O         2.721814        0.828718        9.948500
 O         6.478109        0.862240       12.304139
 O         6.481945        0.831538       16.822039
 O         6.517271        5.440110       16.830076
 O         1.360821        1.819694       16.809366
 O         9.044947        9.053976       12.315017
 O        12.895197       11.750598        9.926397
 O        14.179365       12.017056       12.203298
 O        12.805795       11.653879       14.337764
 O        10.328469        8.188554       14.540237
 O        10.548331       12.622679       14.593732
 O        12.914145        8.985290       10.050964
 O        12.990422        9.177212       14.528944
 O         9.147242       11.817984       16.740116
 O         9.045244       11.806872       12.299730
 O        10.344605       12.712291       10.023456
 O        10.332671        8.089559       10.079535
 O        14.201938        8.163018       12.362399
 O        14.188420        8.229024       16.741272
 O        14.374666       12.709492       16.831451
 O         9.103415        9.098114       16.816502
 O         1.351572        8.997854       12.326050
 O         5.275170       11.805049       10.062910
 O         6.501690       12.743430       12.321023
 O         5.225616       11.816130       14.562515
 O         2.627509        8.156943       14.572737
 O         2.650455       12.712754       14.550887
 O         5.231376        9.059379       10.059753
 O         5.211822        9.081070       14.546519
 O         1.371642       11.804407       16.780071
 O         1.445527       11.726099       12.256516
 O         2.692736       12.668984        9.988543
 O         2.635261        8.194674       10.021933
 O         6.490634        8.158486       12.310762
 O         6.508019        8.188676       16.788717
 O         6.554281       12.672397       16.798796
 O         1.308852        9.068723       16.811758
 H         9.517590        1.395889       11.515894
 H         9.110264        2.639142       12.331787
 H        12.962255        3.580943       10.105600
 H        13.434243        4.824662       10.894035
 H        15.179186        5.138536       12.359952
 H        13.833059        5.106447       13.129002
 H        12.021402        4.862733       14.583061
 H        12.903425        3.606866       14.636132
 H        11.184624        1.086234       14.635228
 H         9.910042        1.018232       13.772189
 H         9.883094        5.118502       15.388846
 H        10.290537        6.384053       14.596320
 H        13.396064        1.437601        9.289018
 H        13.208980        1.452162       10.822305
 H        13.364100        1.485073       15.471906
 H        13.187032        1.484438       13.946700
 H         9.550925        4.769190       17.629751
 H         9.086370        3.526416       16.829210
 H         9.514746        4.773339       13.139217
 H         8.190555        4.769053       12.349524
 H         9.944454        5.015656       10.897532
 H        11.281693        5.066786       10.122072
 H         9.848678        1.178531        9.206259
 H        11.175384        1.169624        9.987202
 H        14.380425       14.546535       16.869024
 H        15.243518        1.220554       16.835600
 H        13.792628        5.161806       17.570887
 H        13.782348        5.158644       16.027596
 H         9.454477        1.381373       16.009161
 H         8.139688        1.422675       16.811626
 H         9.536819        8.781421        4.116210
 H         9.105922       10.048058        3.340627
 H        12.075257       12.159163        1.074274
 H        13.423971       12.128863        0.316413
 H        15.192249       12.384017        3.308460
 H        13.847334       12.357565        2.541991
 H        13.438278       12.088849        4.762635
 H        12.983171       10.835964        5.547501
 H         9.918059        8.450615        6.361611
 H        10.367595        7.201329        5.575794
 H         9.955339       12.378508        6.344096
 H        11.294521       12.394029        5.573720
 H        13.426210        8.760157        1.884902
 H        12.964617       10.022161        1.122745
 H        12.055784        8.736361        5.579570
 H        13.388117        8.702705        6.360364
 H         9.553235       12.075089        8.576126
 H         9.122825       10.802417        7.808330
 H         9.574127       12.156935        4.096276
 H         9.575187       12.167945        2.550234
 H         9.962955       12.462871        0.284879
 H        10.402831       13.728394        1.056666
 H        11.275338        8.473365        1.124175
 H         9.931372        8.489635        1.885289
 H        13.824014        8.505617        4.124796
 H        15.164930        8.513692        3.349933
 H        13.771940        8.366915        8.592075
 H        14.240962        7.117315        7.818009
 H        13.794022       12.433582        6.988264
 H        14.234682       13.686274        7.789425
 H         8.177413        8.709401        7.832748
 H         9.507104        8.679955        8.618429
 H         1.336099       10.054240        3.298473
 H         1.770316        8.781721        2.535694
 H         4.325668       12.158484        1.118886
 H         5.658402       12.131775        1.900205
 H         6.527655       13.678787        3.344302
 H         7.422179       12.420205        3.338160
 H         5.696606       12.132130        6.361008
 H         5.679877       12.137043        4.816502
 H         3.498687        8.492236        5.554799
 H         2.166481        8.503567        4.772975
 H         2.177793       12.362658        6.364810
 H         3.530676       12.368770        5.613402
 H         5.659372        8.778309        0.289132
 H         5.211138       10.029677        1.077323
 H         5.206103       10.024810        5.572136
 H         5.644919        8.771517        4.785426
 H         1.251590       10.814507        7.795225
 H         0.388829       12.097607        7.800410
 H         1.817498       12.177176        2.556141
 H         1.811199       12.142609        4.103474
 H         2.622136       13.730282        1.075009
 H         2.199996       12.459638        0.298726
 H         2.637444        7.194009        1.116106
 H         3.523670        8.459261        1.087560
 H         7.393548        8.501249        3.313288
 H         6.055828        8.486299        2.538613
 H         6.474561        7.178576        7.798182
 H         6.032180        8.444488        7.025734
 H         7.448307       12.365225        7.811324
 H         6.124853       12.386161        8.607810
 H         1.715346        8.717607        7.006957
 H         0.374062        8.682812        7.778289
 H         0.389869        1.428111        3.367941
 H         1.730997        1.429573        4.142060
 H         5.689526        4.845971        1.895157
 H         5.688090        4.862360        0.348944
 H         6.032386        5.122239        4.166926
 H         6.480512        6.389888        3.397990
 H         4.268306        4.789515        5.596649
 H         5.163677        3.527097        5.591209
 H         3.527620        1.142428        5.559107
 H         2.635909       14.483712        5.569167
 H         2.136131        5.115649        4.795338
 H         2.592618        6.382467        5.552118
 H         5.650201        1.465131        0.320939
 H         5.233986        2.742077        1.090413
 H         5.668362        1.429926        4.798604
 H         5.662568        1.422649        6.343106
 H         1.816476        4.829858        8.616624
 H         1.799206        4.842577        7.068937
 H         1.266359        3.538074        3.350854
 H         0.382247        4.806269        3.343260
 H         3.525562        5.090483        1.150582
 H         2.182676        5.083642        1.922942
 H         2.172500        1.209463        1.913568
 H         3.522760        1.221916        1.150684
 H         6.067476        1.181409        2.548884
 H         7.412795        1.185638        3.304433
 H         6.555336       14.496778        7.792626
 H         7.424557        1.173891        7.759318
 H         6.018034        5.066972        7.070282
 H         6.022675        5.086326        8.615926
 H         1.755640        1.473883        6.990510
 H         1.322379        2.723664        7.792418
 H         9.554491        1.490452        2.497295
 H         9.097713        2.737049        3.293180
 H        12.066767        4.850064        1.122282
 H        13.404980        4.864174        1.892579
 H        13.790703        5.138946        4.147821
 H        14.239588        6.397399        3.366828
 H        12.977038        3.551127        5.598549
 H        13.435338        4.791070        6.396199
 H        10.362451       14.506152        5.526973
 H         9.919146        1.154142        4.727996
 H         9.954392        5.106566        6.383073
 H        11.293429        5.095009        5.609229
 H        13.465342        1.506614        0.332764
 H        12.988346        2.765884        1.091278
 H        12.053860        1.455874        5.550717
 H        13.394432        1.442405        4.788792
 H         9.518780        4.837188        8.635680
 H         8.183398        4.861864        7.851380
 H         9.524768        4.835874        4.147038
 H         8.177730        4.844471        3.386045
 H        10.355971        6.362531        1.127480
 H         9.916101        5.110380        1.917809
 H         9.956467        1.206645        0.276431
 H        11.305323        1.227211        1.044680
 H        13.787514        1.158112        2.552186
 H        14.230971       14.485543        3.312454
 H        13.815458        1.194131        7.041153
 H        15.157578        1.185083        7.805346
 H        15.186554        5.045815        7.871471
 H        13.844049        5.054636        8.645946
 H         9.090805        2.766653        7.748580
 H         9.538877        1.511884        6.953952
 H         1.964642        1.567970       13.030335
 H         2.023301        1.579014       11.489573
 H         5.197413        3.548790       10.071066
 H         4.300371        4.810444       10.089046
 H         6.052250        5.095464       11.536058
 H         6.502610        6.360688       12.296054
 H         5.711823        4.837452       15.352003
 H         5.696656        4.825775       13.805573
 H         2.204122        1.165619       15.360592
 H         3.559841        1.145787       14.624490
 H         3.558298        5.094999       14.609785
 H         2.213817        5.113760       15.378295
 H         4.343446        1.439080        9.992444
 H         5.689456        1.459763        9.244490
 H         5.246569        2.714754       14.566701
 H         5.675916        1.462459       13.772560
 H         0.419794        4.904971       16.825464
 H         1.747895        4.892742       17.620846
 H         1.424050        3.682242       12.291728
 H         1.790658        4.938283       13.099392
 H         2.167146        5.180868       10.867878
 H         2.636770        6.403675       10.053746
 H         2.681786       14.471578        9.951647
 H         2.202697        1.129862        9.197441
 H         6.055530        1.199597       11.506056
 H         7.392223        1.168743       12.286189
 H         6.482966       14.472155       16.799517
 H         6.038720        1.131006       16.018608
 H         6.542995        6.401923       16.813322
 H         7.430072        5.132519       16.834721
 H         1.810391        1.535494       17.611433
 H         1.355574        2.781992       16.817924
 H         8.128727        8.747396       12.315585
 H         9.011705       10.015149       12.294845
 H        12.006500       12.125438        9.940039
 H        13.352762       12.117847        9.157677
 H        13.259354       11.905763       13.504405
 H        13.710229       11.982377       11.344215
 H        12.852663       10.636958       14.439404
 H        11.859203       12.061707       14.433579
 H        11.231771        8.495815       14.492608
 H         9.881426        8.502159       13.743032
 H        10.050047       12.337218       15.378775
 H        10.505521       13.597343       14.572226
 H        12.872944        9.941085        9.964969
 H        12.001603        8.673752       10.055414
 H        13.441577        8.789442       13.757841
 H        13.432034        8.838741       15.327062
 H         9.115907       10.854448       16.783493
 H         8.229693       12.118505       16.748911
 H         9.493508       12.118635       13.083243
 H         8.146866       12.163100       12.328419
 H        10.320795       13.678073       10.028653
 H         9.892624       12.423434       10.820400
 H        10.328053        7.125005       10.114686
 H         9.877707        8.400509       10.867853
 H        13.759870        8.434105       11.551066
 H        14.217257        7.194301       12.354053
 H        13.751939        8.509923       17.554510
 H        14.193361        7.262359       16.759935
 H        13.983701       12.469574       16.002510
 H        15.285576       12.378905       16.806011
 H         9.561547        8.746479       17.589207
 H         9.551911        8.753861       16.038435
 H         0.443196        8.689060       12.351750
 H         1.783782        8.667915       13.123526
 H         4.358236       12.100477       10.024294
 H         5.249382       10.842436       10.062641
 H         6.478440       13.708066       12.291969
 H         6.061348       12.431768       11.521928
 H         4.323164       12.155444       14.546844
 H         5.656902       12.152639       13.769341
 H         2.647211        7.191210       14.606693
 H         2.166653        8.450567       15.364344
 H         2.218149       12.422945       13.744526
 H         2.632191       13.681112       14.550422
 H         4.320428        8.748393       10.023072
 H         5.666292        8.727396        9.266457
 H         5.187884       10.044368       14.546062
 H         4.297497        8.778534       14.561847
 H         1.830465       12.097692       15.983225
 H         1.381417       10.841020       16.776815
 H         1.454710       10.762150       12.285191
 H         0.524589       11.957724       12.229293
 H         2.242454       12.345885       10.773118
 H         2.194057       12.341988        9.232466
 H         2.136677        8.508418        9.260134
 H         2.167992        8.490104       10.808106
 H         6.014612        8.489575       13.079993
 H         6.025620        8.482638       11.531073
 H         7.408273        8.526808       16.776590
 H         6.074445        8.510753       15.990929
 H         6.083060       12.355102       17.576410
 H         6.069199       12.354073       16.029358
 H         1.738351        8.726590       17.604525
 H         0.398821        8.761222       16.825197
