381
 generated by VMD
 O         9.103341        1.764195       12.266456
 O        12.991288        4.514863       10.089267
 O        14.266704        5.421951       12.334818
 O        12.972227        4.481339       14.559025
 O        10.373741        0.842909       14.513401
 O        10.379848        5.387334       14.567695
 O        13.000606        1.802227       10.014108
 O        12.971994        1.739243       14.536653
 O         9.071024        4.472065       16.803919
 O         9.093911        4.510155       12.307132
 O        10.396284        5.446641       10.085848
 O        10.469170        0.880189       10.047403
 O        14.268815        0.860314       12.264367
 O        14.261891        0.823120       16.760754
 O        14.213999        5.397092       16.823433
 O         9.087890        1.724141       16.781981
 O         9.114470        9.070854        3.357923
 O        12.954727       11.826498        1.121279
 O        14.288009       12.778728        3.348384
 O        12.982668       11.849520        5.572613
 O        10.427089        8.158214        5.593976
 O        10.402397       12.715771        5.556406
 O        12.940530        9.081870        1.088261
 O        13.031393        9.084515        5.572102
 O         9.106611       11.839860        7.810658
 O         9.078970       11.812958        3.343532
 O        10.389747       12.740911        1.122038
 O        10.372127        8.142422        1.097854
 O        14.255400        8.158093        3.306759
 O        14.248159        8.140005        7.816707
 O        14.211589       12.706890        7.827925
 O         9.106198        9.107676        7.814766
 O         1.307595        9.050302        3.314533
 O         5.185368       11.787557        1.079298
 O         6.494081       12.672867        3.340835
 O         5.196460       11.744468        5.591206
 O         2.580489        8.188473        5.572112
 O         2.512827       12.479901        5.614312
 O         5.208700        9.054523        1.083906
 O         5.215099        9.012662        5.572784
 O         1.232171       11.703216        7.909390
 O         1.300537       11.763638        3.288487
 O         2.618238       12.709564        1.075696
 O         2.620553        8.194861        1.066573
 O         6.514856        8.180761        3.309373
 O         6.520347        8.181220        7.849305
 O         6.504003       12.624475        7.847987
 O         1.305889        8.988327        7.875102
 O         1.488136        1.938017        3.230710
 O         5.176124        4.511737        1.052096
 O         6.507493        5.471169        3.271149
 O         5.157158        4.700352        5.551033
 O         2.257661        0.491457        5.890752
 O         2.551368        5.480028        5.531230
 O         5.235644        1.771094        0.941670
 O         1.340072        4.569665        7.729781
 O         1.294914        4.628268        3.251815
 O         2.578441        5.465302        1.007135
 O         2.653116        0.867505        0.953796
 O         6.598127        0.836525        3.161855
 O         6.814362        0.774904        8.154396
 O         6.482818        5.420486        7.891630
 O         1.260652        1.489545        7.950990
 O         9.162553        1.788570        3.331938
 O        12.918535        4.490043        1.115099
 O        14.201781        5.429222        3.320392
 O        12.940415        4.494100        5.597706
 O        10.495402        0.857695        5.570906
 O        10.368138        5.418154        5.601466
 O        13.019221        1.746406        1.103122
 O        13.161823        1.775182        5.646799
 O         9.081511        4.517890        7.843466
 O         9.076645        4.532022        3.347967
 O        10.350188        5.399307        1.102942
 O        10.423320        0.877190        1.095039
 O        14.408244        0.940703        3.341574
 O        14.361108        0.951387        7.899997
 O        14.242940        5.433202        7.839012
 O         9.214229        1.805801        7.851620
 O         1.325080        1.781896       12.254288
 O         5.158503        4.502543       10.094159
 O         6.490169        5.380597       12.328418
 O         5.183829        4.489877       14.565564
 O         2.611279        0.849928       14.457310
 O         2.596178        5.414242       14.556763
 O         4.995294        1.776819       10.135876
 O         5.180973        1.755431       14.477016
 O         1.258499        4.492020       16.737797
 O         1.306990        4.495671       12.289089
 O         2.572289        5.460055       10.060602
 O         2.501470        0.940467       10.020561
 O         6.494937        0.858184       12.252930
 O         6.505188        0.810852       16.699762
 O         6.494224        5.426225       16.771027
 O         1.301795        1.750039       16.698179
 O         9.091884        9.051767       12.324661
 O        12.960491       11.765497       10.101966
 O        14.261764       12.722671       12.310714
 O        12.981709       11.804448       14.564613
 O        10.386412        8.133867       14.570027
 O        10.391992       12.704915       14.571609
 O        12.976172        9.032867       10.075089
 O        12.971643        9.056638       14.558323
 O         9.114450       11.803247       16.815231
 O         9.084085       11.794210       12.332400
 O        10.373648       12.734511       10.097496
 O        10.378838        8.184735       10.061186
 O        14.281819        8.154316       12.321597
 O        14.238965        8.139132       16.821020
 O        14.271451       12.683667       16.809748
 O         9.082683        9.065914       16.796341
 O         1.340153        9.065096       12.339760
 O         5.141173       11.772175       10.110498
 O         6.496130       12.706682       12.301359
 O         5.209930       11.809107       14.558009
 O         2.615433        8.157618       14.574829
 O         2.605950       12.718341       14.574175
 O         5.219362        9.035086       10.099472
 O         5.206331        9.065668       14.537403
 O         1.314338       11.779361       16.801626
 O         1.297094       11.800510       12.340120
 O         2.599356       12.700603       10.076114
 O         2.630885        8.166221       10.112485
 O         6.524076        8.119152       12.331255
 O         6.510962        8.159762       16.783724
 O         6.514194       12.685995       16.791609
 O         1.297807        9.040224       16.792753
 H         9.105177        2.727173       12.258641
 H         9.572389        1.480432       11.474947
 H        13.453312        4.847663       10.866662
 H        13.454504        4.856806        9.317019
 H        14.255195        6.385032       12.360941
 H        13.810619        5.113004       13.125602
 H        13.407734        4.780733       15.364505
 H        12.989770        3.518613       14.573967
 H        11.275848        1.177534       14.500595
 H         9.941640        1.177695       13.719969
 H        11.281182        5.050030       14.545698
 H         9.945284        5.073194       13.767580
 H        12.087339        1.479930       10.026701
 H        12.961030        2.766501       10.047985
 H        13.433714        1.391850       15.308474
 H        13.441843        1.416721       13.762644
 H         9.535335        4.770004       16.014921
 H         9.079447        3.509155       16.780104
 H         9.524297        4.861687       11.520592
 H         8.184153        4.825284       12.293417
 H        10.413307        6.409381       10.071455
 H        11.310881        5.150579       10.089725
 H        10.016829        1.182344        9.246768
 H        10.419978       14.520827       10.048853
 H        15.169795        1.197016       12.252112
 H        13.830136        1.209244       11.482296
 H        15.177246        1.123836       16.743946
 H        14.288245       14.462605       16.783945
 H        13.752506        5.103018       17.616270
 H        14.211168        6.360209       16.841763
 H         9.526944        1.404010       15.987784
 H         8.183733        1.393156       16.744366
 H         9.572927        8.733173        2.581850
 H         9.589165        8.742064        4.128048
 H        13.393319       12.173055        1.903521
 H        12.051785       12.165585        1.138514
 H        14.359552       13.737738        3.339392
 H        15.187264       12.434641        3.316908
 H        12.065063       12.147176        5.538486
 H        13.418089       12.192200        4.784558
 H        11.344186        8.446195        5.589171
 H        10.431687        7.194638        5.602112
 H         9.927135       12.410041        6.336699
 H         9.912567       12.396525        4.789645
 H        12.916985       10.044436        1.107073
 H        12.026348        8.776525        1.093554
 H        13.463972        8.785341        4.764533
 H        13.021959       10.045911        5.545343
 H         9.528054       12.170186        8.609484
 H         8.188265       12.135110        7.837952
 H         9.073941       10.849974        3.342925
 H         8.156506       12.094977        3.341885
 H        10.375821       13.704238        1.138286
 H         9.915294       12.439857        1.904938
 H         9.907230        8.442643        0.309951
 H        10.354630        7.179233        1.079795
 H        14.217044        7.195134        3.293466
 H        13.788807        8.464595        2.521553
 H        13.842965        8.484810        7.012372
 H        15.162335        8.445153        7.822959
 H        14.209374       13.662571        7.825000
 H        13.763565       12.423661        7.018810
 H         9.123555       10.071016        7.789855
 H         9.570489        8.798242        7.030497
 H         0.406394        8.709909        3.324833
 H         1.733695        8.743501        4.122992
 H         5.660488       12.089103        0.298084
 H         5.202236       10.824488        1.057640
 H         6.014333       12.352519        2.570858
 H         6.018043       12.361918        4.116664
 H         5.198945       10.780693        5.580476
 H         4.275034       12.008541        5.590981
 H         2.143656        8.463999        6.383541
 H         2.559347        7.224183        5.566494
 H         2.041128       12.107771        6.364760
 H         2.075386       12.190519        4.803941
 H         5.689239        8.738275        1.858144
 H         5.677109        8.721962        0.311103
 H         5.647565        8.695353        4.772140
 H         4.307031        8.696373        5.548630
 H         0.336344       12.053546        7.922195
 H         1.692283       12.059572        8.675918
 H         1.302165       10.800170        3.243493
 H         1.778329       12.085252        2.515580
 H         3.534841       12.409344        1.078819
 H         2.643721       13.671665        1.051174
 H         3.531730        8.509315        1.093590
 H         2.190696        8.499360        1.872276
 H         7.429904        8.478162        3.333568
 H         6.537873        7.215899        3.284986
 H         6.078963        8.474902        7.045749
 H         7.419070        8.524407        7.812306
 H         6.015508       12.300078        8.607859
 H         6.029042       12.335263        7.063302
 H         1.286002        9.949873        7.911628
 H         1.775466        8.700682        8.666055
 H         1.433913        2.903960        3.224475
 H         2.134818        1.730738        3.894589
 H         5.611385        4.855508        0.265785
 H         4.272723        4.839501        1.035750
 H         6.024545        5.110563        2.520163
 H         6.035992        5.185584        4.060173
 H         5.146684        3.744421        5.438590
 H         5.629740        4.877712        6.372183
 H         2.357378       14.127407        5.788683
 H         1.675459        1.053945        7.151332
 H         3.470885        5.183429        5.520264
 H         2.144125        5.162494        4.717214
 H         5.220446        2.732180        1.014332
 H         5.702549        1.449597        1.719492
 H         1.403072        3.624564        7.706979
 H         1.784188        4.884161        6.925048
 H         0.379705        4.925913        3.241725
 H         1.720153        4.959649        2.451836
 H         2.587225        6.427737        0.981311
 H         2.118809        5.157192        0.220517
 H         3.565310        1.182430        0.958872
 H         2.243907        1.254514        1.732179
 H         6.065406        1.236665        3.854298
 H         6.524852       14.485022        3.279318
 H         6.150561        1.112604        8.747607
 H         6.645059       14.445488        8.024688
 H         7.390557        5.099932        7.868802
 H         6.530526        6.380939        7.878785
 H         0.265245        1.276850        7.975972
 H         1.765629        1.261978        8.817677
 H         9.593229        1.463203        4.127491
 H         8.265235        1.436751        3.332314
 H        12.920912        3.527245        1.103509
 H        11.996433        4.773362        1.106785
 H        13.725430        5.079386        2.558228
 H        13.754382        5.096479        4.103923
 H        12.028562        4.808969        5.613912
 H        13.369063        4.845856        6.383533
 H        11.413829        1.129519        5.590407
 H        10.486656       14.497163        5.566553
 H         9.890102        5.093985        6.373624
 H         9.890205        5.103115        4.825938
 H        12.112734        1.417944        1.092737
 H        13.438096        1.419208        0.300905
 H        13.602207        1.505971        4.833101
 H        13.078142        2.735930        5.608562
 H         9.116257        3.553055        7.852028
 H         9.543158        4.816999        8.631637
 H         8.157364        4.822090        3.333752
 H         9.063719        3.568852        3.357023
 H         9.879686        5.060121        0.334129
 H         9.876106        5.085544        1.882652
 H         9.939312        1.189287        0.323694
 H         9.965647        1.220801        1.871800
 H        15.306383        1.277488        3.294263
 H        13.948912        1.241483        2.549636
 H        13.836119        1.272893        8.654957
 H        13.929608        1.271164        7.088729
 H        15.159410        5.151423        7.792672
 H        14.252164        6.398488        7.825694
 H         9.606002        1.477680        7.039415
 H         8.318031        1.434980        7.911870
 H         1.785009        1.458977       13.040619
 H         1.329289        2.746716       12.300473
 H         4.266254        4.858277       10.060448
 H         5.615585        4.824871        9.307291
 H         6.008761        5.062602       11.557299
 H         6.021890        5.053083       13.103838
 H         4.281785        4.824246       14.593064
 H         5.631679        4.825103       15.350883
 H         3.528596        1.148606       14.464769
 H         2.629713       14.489682       14.503013
 H         2.105409        5.078645       15.316220
 H         2.141115        5.091359       13.773871
 H         5.512668        1.470974       10.888312
 H         5.074193        2.737572       10.116198
 H         5.656733        1.476578       13.687360
 H         5.195553        2.718488       14.492516
 H         0.339990        4.780273       16.768736
 H         1.252851        3.529025       16.735249
 H         0.405025        4.835404       12.291687
 H         1.733671        4.846024       11.499733
 H         2.585601        6.425095       10.069292
 H         2.147047        5.195158        9.242665
 H         2.076758        1.245225       10.841565
 H         3.425384        1.262437       10.052768
 H         7.409434        1.158091       12.232964
 H         6.521036       14.497995       12.264344
 H         6.042908        1.172676       17.466431
 H         6.039812        1.137171       15.923651
 H         7.402238        5.106430       16.785889
 H         6.535368        6.388503       16.775661
 H         1.799382        1.430110       17.459976
 H         1.769177        1.438367       15.916562
 H         8.190190        8.712501       12.349211
 H         9.534039        8.712894       13.110076
 H        12.975222       10.801686       10.079327
 H        13.387918       12.065117        9.295763
 H        13.794844       12.401422       11.531609
 H        14.240057       13.684245       12.273746
 H        13.448606       12.145063       13.795535
 H        13.454363       12.119378       15.343071
 H        10.407462        7.170947       14.576325
 H        11.301651        8.432420       14.562710
 H        10.404705       13.667923       14.545684
 H        11.310196       12.414945       14.565881
 H        12.063091        8.723574       10.059108
 H        13.395856        8.703750        9.273428
 H        13.438073        8.763587       13.768875
 H        12.982056       10.019357       14.541884
 H         9.583118       12.139843       16.043894
 H         9.574377       12.141068       17.590668
 H         9.542428       12.089796       13.126040
 H         9.093640       10.831188       12.348727
 H         9.926842       12.403354       10.883799
 H        11.265557       12.377011       10.120902
 H         9.908236        8.502788       10.839122
 H         9.912488        8.523702        9.289044
 H        13.847294        8.470063       11.522268
 H        15.186896        8.482433       12.302171
 H        13.783649        8.468882       16.039543
 H        13.765313        8.489224       17.583849
 H        13.827280       12.369255       17.604254
 H        15.173418       12.345503       16.839281
 H         9.109599       10.028934       16.786360
 H         9.550014        8.764061       16.010313
 H         1.337289       10.027355       12.366920
 H         1.787836        8.763694       13.138929
 H         5.177537       10.809539       10.132051
 H         5.629972       12.083358       10.880642
 H         7.400438       12.376070       12.326240
 H         6.066273       12.392837       13.103930
 H         5.652008       12.122532       15.355577
 H         4.307724       12.141266       14.589125
 H         2.603105        7.194597       14.583425
 H         2.145816        8.445934       15.365775
 H         2.142456       12.384554       15.350280
 H         2.134541       12.382299       13.805743
 H         5.696576        8.695127       10.864065
 H         5.690537        8.729197        9.315784
 H         4.291042        8.767597       14.556849
 H         5.184450       10.028535       14.538406
 H         1.781749       12.080014       17.589237
 H         1.324799       10.816266       16.818075
 H         1.736617       12.123806       11.549165
 H         0.392002       12.130528       12.310516
 H         3.514492       12.386097       10.088184
 H         2.632835       13.655795       10.074457
 H         3.543501        8.477490       10.126369
 H         2.204135        8.499765       10.909974
 H         6.052037        8.430188       13.111400
 H         6.501628        7.156357       12.355705
 H         7.412584        8.499559       16.765131
 H         6.073083        8.489033       15.992396
 H         7.431483       12.393757       16.800955
 H         6.531463       13.649696       16.769482
 H         0.392986        8.712302       16.827921
 H         1.744258        8.728824       17.588556
381
 generated by VMD
 O         9.103341        1.764195       12.266456
 O        12.991288        4.514863       10.089267
 O        14.266704        5.421951       12.334818
 O        12.972227        4.481339       14.559025
 O        10.373741        0.842909       14.513401
 O        10.379848        5.387334       14.567695
 O        13.000606        1.802227       10.014108
 O        12.971994        1.739243       14.536653
 O         9.071024        4.472065       16.803919
 O         9.093911        4.510155       12.307132
 O        10.396284        5.446641       10.085848
 O        10.469170        0.880189       10.047403
 O        14.268815        0.860314       12.264367
 O        14.261891        0.823120       16.760754
 O        14.213999        5.397092       16.823433
 O         9.087890        1.724141       16.781981
 O         9.114470        9.070854        3.357923
 O        12.954727       11.826498        1.121279
 O        14.288009       12.778728        3.348384
 O        12.982668       11.849520        5.572613
 O        10.427089        8.158214        5.593976
 O        10.402397       12.715771        5.556406
 O        12.940530        9.081870        1.088261
 O        13.031393        9.084515        5.572102
 O         9.106611       11.839860        7.810658
 O         9.078970       11.812958        3.343532
 O        10.389747       12.740911        1.122038
 O        10.372127        8.142422        1.097854
 O        14.255400        8.158093        3.306759
 O        14.248159        8.140005        7.816707
 O        14.211589       12.706890        7.827925
 O         9.106198        9.107676        7.814766
 O         1.307595        9.050302        3.314533
 O         5.185368       11.787557        1.079298
 O         6.494081       12.672867        3.340835
 O         5.196460       11.744468        5.591206
 O         2.580489        8.188473        5.572112
 O         2.512827       12.479901        5.614312
 O         5.208700        9.054523        1.083906
 O         5.215099        9.012662        5.572784
 O         1.232171       11.703216        7.909390
 O         1.300537       11.763638        3.288487
 O         2.618238       12.709564        1.075696
 O         2.620553        8.194861        1.066573
 O         6.514856        8.180761        3.309373
 O         6.520347        8.181220        7.849305
 O         6.504003       12.624475        7.847987
 O         1.305889        8.988327        7.875102
 O         1.488136        1.938017        3.230710
 O         5.176124        4.511737        1.052096
 O         6.507493        5.471169        3.271149
 O         5.157158        4.700352        5.551033
 O         2.257661        0.491457        5.890752
 O         2.551368        5.480028        5.531230
 O         5.235644        1.771094        0.941670
 O         1.340072        4.569665        7.729781
 O         1.294914        4.628268        3.251815
 O         2.578441        5.465302        1.007135
 O         2.653116        0.867505        0.953796
 O         6.598127        0.836525        3.161855
 O         6.814362        0.774904        8.154396
 O         6.482818        5.420486        7.891630
 O         1.260652        1.489545        7.950990
 O         9.162553        1.788570        3.331938
 O        12.918535        4.490043        1.115099
 O        14.201781        5.429222        3.320392
 O        12.940415        4.494100        5.597706
 O        10.495402        0.857695        5.570906
 O        10.368138        5.418154        5.601466
 O        13.019221        1.746406        1.103122
 O        13.161823        1.775182        5.646799
 O         9.081511        4.517890        7.843466
 O         9.076645        4.532022        3.347967
 O        10.350188        5.399307        1.102942
 O        10.423320        0.877190        1.095039
 O        14.408244        0.940703        3.341574
 O        14.361108        0.951387        7.899997
 O        14.242940        5.433202        7.839012
 O         9.214229        1.805801        7.851620
 O         1.325080        1.781896       12.254288
 O         5.158503        4.502543       10.094159
 O         6.490169        5.380597       12.328418
 O         5.183829        4.489877       14.565564
 O         2.611279        0.849928       14.457310
 O         2.596178        5.414242       14.556763
 O         4.995294        1.776819       10.135876
 O         5.180973        1.755431       14.477016
 O         1.258499        4.492020       16.737797
 O         1.306990        4.495671       12.289089
 O         2.572289        5.460055       10.060602
 O         2.501470        0.940467       10.020561
 O         6.494937        0.858184       12.252930
 O         6.505188        0.810852       16.699762
 O         6.494224        5.426225       16.771027
 O         1.301795        1.750039       16.698179
 O         9.091884        9.051767       12.324661
 O        12.960491       11.765497       10.101966
 O        14.261764       12.722671       12.310714
 O        12.981709       11.804448       14.564613
 O        10.386412        8.133867       14.570027
 O        10.391992       12.704915       14.571609
 O        12.976172        9.032867       10.075089
 O        12.971643        9.056638       14.558323
 O         9.114450       11.803247       16.815231
 O         9.084085       11.794210       12.332400
 O        10.373648       12.734511       10.097496
 O        10.378838        8.184735       10.061186
 O        14.281819        8.154316       12.321597
 O        14.238965        8.139132       16.821020
 O        14.271451       12.683667       16.809748
 O         9.082683        9.065914       16.796341
 O         1.340153        9.065096       12.339760
 O         5.141173       11.772175       10.110498
 O         6.496130       12.706682       12.301359
 O         5.209930       11.809107       14.558009
 O         2.615433        8.157618       14.574829
 O         2.605950       12.718341       14.574175
 O         5.219362        9.035086       10.099472
 O         5.206331        9.065668       14.537403
 O         1.314338       11.779361       16.801626
 O         1.297094       11.800510       12.340120
 O         2.599356       12.700603       10.076114
 O         2.630885        8.166221       10.112485
 O         6.524076        8.119152       12.331255
 O         6.510962        8.159762       16.783724
 O         6.514194       12.685995       16.791609
 O         1.297807        9.040224       16.792753
 H         9.105177        2.727173       12.258641
 H         9.572389        1.480432       11.474947
 H        13.453312        4.847663       10.866662
 H        13.454504        4.856806        9.317019
 H        14.255195        6.385032       12.360941
 H        13.810619        5.113004       13.125602
 H        13.407734        4.780733       15.364505
 H        12.989770        3.518613       14.573967
 H        11.275848        1.177534       14.500595
 H         9.941640        1.177695       13.719969
 H        11.281182        5.050030       14.545698
 H         9.945284        5.073194       13.767580
 H        12.087339        1.479930       10.026701
 H        12.961030        2.766501       10.047985
 H        13.433714        1.391850       15.308474
 H        13.441843        1.416721       13.762644
 H         9.535335        4.770004       16.014921
 H         9.079447        3.509155       16.780104
 H         9.524297        4.861687       11.520592
 H         8.184153        4.825284       12.293417
 H        10.413307        6.409381       10.071455
 H        11.310881        5.150579       10.089725
 H        10.016829        1.182344        9.246768
 H        10.419978       14.520827       10.048853
 H        15.169795        1.197016       12.252112
 H        13.830136        1.209244       11.482296
 H        15.177246        1.123836       16.743946
 H        14.288245       14.462605       16.783945
 H        13.752506        5.103018       17.616270
 H        14.211168        6.360209       16.841763
 H         9.526944        1.404010       15.987784
 H         8.183733        1.393156       16.744366
 H         9.572927        8.733173        2.581850
 H         9.589165        8.742064        4.128048
 H        13.393319       12.173055        1.903521
 H        12.051785       12.165585        1.138514
 H        14.359552       13.737738        3.339392
 H        15.187264       12.434641        3.316908
 H        12.065063       12.147176        5.538486
 H        13.418089       12.192200        4.784558
 H        11.344186        8.446195        5.589171
 H        10.431687        7.194638        5.602112
 H         9.927135       12.410041        6.336699
 H         9.912567       12.396525        4.789645
 H        12.916985       10.044436        1.107073
 H        12.026348        8.776525        1.093554
 H        13.463972        8.785341        4.764533
 H        13.021959       10.045911        5.545343
 H         9.528054       12.170186        8.609484
 H         8.188265       12.135110        7.837952
 H         9.073941       10.849974        3.342925
 H         8.156506       12.094977        3.341885
 H        10.375821       13.704238        1.138286
 H         9.915294       12.439857        1.904938
 H         9.907230        8.442643        0.309951
 H        10.354630        7.179233        1.079795
 H        14.217044        7.195134        3.293466
 H        13.788807        8.464595        2.521553
 H        13.842965        8.484810        7.012372
 H        15.162335        8.445153        7.822959
 H        14.209374       13.662571        7.825000
 H        13.763565       12.423661        7.018810
 H         9.123555       10.071016        7.789855
 H         9.570489        8.798242        7.030497
 H         0.406394        8.709909        3.324833
 H         1.733695        8.743501        4.122992
 H         5.660488       12.089103        0.298084
 H         5.202236       10.824488        1.057640
 H         6.014333       12.352519        2.570858
 H         6.018043       12.361918        4.116664
 H         5.198945       10.780693        5.580476
 H         4.275034       12.008541        5.590981
 H         2.143656        8.463999        6.383541
 H         2.559347        7.224183        5.566494
 H         2.041128       12.107771        6.364760
 H         2.075386       12.190519        4.803941
 H         5.689239        8.738275        1.858144
 H         5.677109        8.721962        0.311103
 H         5.647565        8.695353        4.772140
 H         4.307031        8.696373        5.548630
 H         0.336344       12.053546        7.922195
 H         1.692283       12.059572        8.675918
 H         1.302165       10.800170        3.243493
 H         1.778329       12.085252        2.515580
 H         3.534841       12.409344        1.078819
 H         2.643721       13.671665        1.051174
 H         3.531730        8.509315        1.093590
 H         2.190696        8.499360        1.872276
 H         7.429904        8.478162        3.333568
 H         6.537873        7.215899        3.284986
 H         6.078963        8.474902        7.045749
 H         7.419070        8.524407        7.812306
 H         6.015508       12.300078        8.607859
 H         6.029042       12.335263        7.063302
 H         1.286002        9.949873        7.911628
 H         1.775466        8.700682        8.666055
 H         1.433913        2.903960        3.224475
 H         2.134818        1.730738        3.894589
 H         5.611385        4.855508        0.265785
 H         4.272723        4.839501        1.035750
 H         6.024545        5.110563        2.520163
 H         6.035992        5.185584        4.060173
 H         5.146684        3.744421        5.438590
 H         5.629740        4.877712        6.372183
 H         2.357378       14.127407        5.788683
 H         1.675459        1.053945        7.151332
 H         3.470885        5.183429        5.520264
 H         2.144125        5.162494        4.717214
 H         5.220446        2.732180        1.014332
 H         5.702549        1.449597        1.719492
 H         1.403072        3.624564        7.706979
 H         1.784188        4.884161        6.925048
 H         0.379705        4.925913        3.241725
 H         1.720153        4.959649        2.451836
 H         2.587225        6.427737        0.981311
 H         2.118809        5.157192        0.220517
 H         3.565310        1.182430        0.958872
 H         2.243907        1.254514        1.732179
 H         6.065406        1.236665        3.854298
 H         6.524852       14.485022        3.279318
 H         6.150561        1.112604        8.747607
 H         6.645059       14.445488        8.024688
 H         7.390557        5.099932        7.868802
 H         6.530526        6.380939        7.878785
 H         0.265245        1.276850        7.975972
 H         1.765629        1.261978        8.817677
 H         9.593229        1.463203        4.127491
 H         8.265235        1.436751        3.332314
 H        12.920912        3.527245        1.103509
 H        11.996433        4.773362        1.106785
 H        13.725430        5.079386        2.558228
 H        13.754382        5.096479        4.103923
 H        12.028562        4.808969        5.613912
 H        13.369063        4.845856        6.383533
 H        11.413829        1.129519        5.590407
 H        10.486656       14.497163        5.566553
 H         9.890102        5.093985        6.373624
 H         9.890205        5.103115        4.825938
 H        12.112734        1.417944        1.092737
 H        13.438096        1.419208        0.300905
 H        13.602207        1.505971        4.833101
 H        13.078142        2.735930        5.608562
 H         9.116257        3.553055        7.852028
 H         9.543158        4.816999        8.631637
 H         8.157364        4.822090        3.333752
 H         9.063719        3.568852        3.357023
 H         9.879686        5.060121        0.334129
 H         9.876106        5.085544        1.882652
 H         9.939312        1.189287        0.323694
 H         9.965647        1.220801        1.871800
 H        15.306383        1.277488        3.294263
 H        13.948912        1.241483        2.549636
 H        13.836119        1.272893        8.654957
 H        13.929608        1.271164        7.088729
 H        15.159410        5.151423        7.792672
 H        14.252164        6.398488        7.825694
 H         9.606002        1.477680        7.039415
 H         8.318031        1.434980        7.911870
 H         1.785009        1.458977       13.040619
 H         1.329289        2.746716       12.300473
 H         4.266254        4.858277       10.060448
 H         5.615585        4.824871        9.307291
 H         6.008761        5.062602       11.557299
 H         6.021890        5.053083       13.103838
 H         4.281785        4.824246       14.593064
 H         5.631679        4.825103       15.350883
 H         3.528596        1.148606       14.464769
 H         2.629713       14.489682       14.503013
 H         2.105409        5.078645       15.316220
 H         2.141115        5.091359       13.773871
 H         5.512668        1.470974       10.888312
 H         5.074193        2.737572       10.116198
 H         5.656733        1.476578       13.687360
 H         5.195553        2.718488       14.492516
 H         0.339990        4.780273       16.768736
 H         1.252851        3.529025       16.735249
 H         0.405025        4.835404       12.291687
 H         1.733671        4.846024       11.499733
 H         2.585601        6.425095       10.069292
 H         2.147047        5.195158        9.242665
 H         2.076758        1.245225       10.841565
 H         3.425384        1.262437       10.052768
 H         7.409434        1.158091       12.232964
 H         6.521036       14.497995       12.264344
 H         6.042908        1.172676       17.466431
 H         6.039812        1.137171       15.923651
 H         7.402238        5.106430       16.785889
 H         6.535368        6.388503       16.775661
 H         1.799382        1.430110       17.459976
 H         1.769177        1.438367       15.916562
 H         8.190190        8.712501       12.349211
 H         9.534039        8.712894       13.110076
 H        12.975222       10.801686       10.079327
 H        13.387918       12.065117        9.295763
 H        13.794844       12.401422       11.531609
 H        14.240057       13.684245       12.273746
 H        13.448606       12.145063       13.795535
 H        13.454363       12.119378       15.343071
 H        10.407462        7.170947       14.576325
 H        11.301651        8.432420       14.562710
 H        10.404705       13.667923       14.545684
 H        11.310196       12.414945       14.565881
 H        12.063091        8.723574       10.059108
 H        13.395856        8.703750        9.273428
 H        13.438073        8.763587       13.768875
 H        12.982056       10.019357       14.541884
 H         9.583118       12.139843       16.043894
 H         9.574377       12.141068       17.590668
 H         9.542428       12.089796       13.126040
 H         9.093640       10.831188       12.348727
 H         9.926842       12.403354       10.883799
 H        11.265557       12.377011       10.120902
 H         9.908236        8.502788       10.839122
 H         9.912488        8.523702        9.289044
 H        13.847294        8.470063       11.522268
 H        15.186896        8.482433       12.302171
 H        13.783649        8.468882       16.039543
 H        13.765313        8.489224       17.583849
 H        13.827280       12.369255       17.604254
 H        15.173418       12.345503       16.839281
 H         9.109599       10.028934       16.786360
 H         9.550014        8.764061       16.010313
 H         1.337289       10.027355       12.366920
 H         1.787836        8.763694       13.138929
 H         5.177537       10.809539       10.132051
 H         5.629972       12.083358       10.880642
 H         7.400438       12.376070       12.326240
 H         6.066273       12.392837       13.103930
 H         5.652008       12.122532       15.355577
 H         4.307724       12.141266       14.589125
 H         2.603105        7.194597       14.583425
 H         2.145816        8.445934       15.365775
 H         2.142456       12.384554       15.350280
 H         2.134541       12.382299       13.805743
 H         5.696576        8.695127       10.864065
 H         5.690537        8.729197        9.315784
 H         4.291042        8.767597       14.556849
 H         5.184450       10.028535       14.538406
 H         1.781749       12.080014       17.589237
 H         1.324799       10.816266       16.818075
 H         1.736617       12.123806       11.549165
 H         0.392002       12.130528       12.310516
 H         3.514492       12.386097       10.088184
 H         2.632835       13.655795       10.074457
 H         3.543501        8.477490       10.126369
 H         2.204135        8.499765       10.909974
 H         6.052037        8.430188       13.111400
 H         6.501628        7.156357       12.355705
 H         7.412584        8.499559       16.765131
 H         6.073083        8.489033       15.992396
 H         7.431483       12.393757       16.800955
 H         6.531463       13.649696       16.769482
 H         0.392986        8.712302       16.827921
 H         1.744258        8.728824       17.588556
