381
 generated by VMD
 O         9.111310        1.766770       12.292771
 O        12.984431        4.494669       10.039743
 O        14.242028        5.352512       12.379717
 O        12.818410        4.378194       14.253499
 O        10.408952        0.850480       14.563464
 O        10.506717        5.349950       14.402577
 O        12.954605        1.751687       10.056515
 O        12.903620        1.864409       14.542190
 O         9.140210        4.466666       16.750751
 O         9.108149        4.504931       12.255437
 O        10.388846        5.403160       10.036790
 O        10.381439        0.811467       10.075609
 O        14.291204        0.890231       12.295244
 O        14.191474        0.938848       16.733774
 O         9.099336        1.733205       16.790802
 O         9.052641        9.057815        3.391576
 O        12.970891       11.872488        1.089819
 O        14.285621       12.736814        3.315862
 O        12.988573       11.844016        5.558191
 O        10.391265        8.168799        5.619575
 O        10.395396       12.731197        5.570880
 O        12.911583        9.168927        1.140304
 O        12.974742        9.100517        5.587925
 O         9.127035       11.826072        7.828623
 O         9.096638       11.789489        3.345117
 O        10.373446       12.733809        1.113196
 O        10.327996        8.188477        1.122246
 O        14.242623        8.187226        3.346727
 O        14.245921        8.146859        7.810324
 O        14.267251       12.695975        7.818525
 O         9.090487        9.084382        7.855698
 O         1.308645        9.052486        3.347494
 O         5.225209       11.803026        1.090886
 O         6.509693       12.698970        3.347009
 O         5.222645       11.801600        5.600359
 O         2.600414        8.173700        5.592173
 O         2.642893       12.711772        5.620811
 O         5.229501        9.064432        1.055527
 O         5.190567        9.067767        5.573217
 O         1.323946       11.795123        7.852947
 O         1.336055       11.782787        3.370739
 O         2.628372       12.677547        1.127365
 O         2.626101        8.189756        1.093694
 O         6.461942        8.154670        3.339347
 O         6.511297        8.138336        7.785425
 O         6.543098       12.740932        7.819054
 O         1.298414        9.056849        7.821490
 O         1.291697        1.777279        3.381489
 O         5.292456        4.498321        1.118466
 O         6.484717        5.421107        3.377608
 O         5.184528        4.491921        5.591675
 O         2.596109        0.858972        5.599529
 O         2.624947        5.443026        5.632211
 O         5.209114        1.751737        1.110279
 O         5.181491        1.752260        5.598875
 O         1.314429        4.505476        7.855326
 O         1.331203        4.506806        3.397931
 O         2.711830        5.449883        1.211581
 O         2.617980        0.803589        1.183521
 O         6.474943        0.837254        3.356451
 O         6.498655        0.867928        7.820703
 O         6.489913        5.384706        7.818239
 O         1.302676        1.759803        7.848692
 O         9.045628        1.778735        3.362679
 O        12.870765        4.521239        1.250513
 O        14.263523        5.446839        3.450470
 O        12.952631        4.473520        5.663580
 O        10.356008        0.866260        5.574740
 O        10.383805        5.427073        5.603376
 O        12.932043        1.775432        1.075374
 O        12.952605        1.735753        5.581999
 O         9.076056        4.499543        7.831169
 O         9.051330        4.510206        3.386989
 O        10.288870        5.433236        1.151554
 O        10.330111        0.864995        1.113063
 O        14.233387        0.870418        3.327463
 O        14.253086        0.839672        7.812846
 O        14.269271        5.413732        7.840134
 O         9.080005        1.759755        7.841129
 O         1.323114        1.777786       12.353730
 O         5.152353        4.515095       10.057287
 O         6.509098        5.418615       12.262870
 O         5.314221        4.481897       14.512197
 O         2.619734        0.804768       14.560143
 O         2.752967        5.449678       14.461111
 O         5.181573        1.777927       10.039165
 O         5.218812        1.737396       14.530911
 O         2.002670        4.254105       16.809664
 O         1.291367        4.540482       12.329439
 O         2.569664        5.442696       10.093561
 O         2.594070        0.831821       10.089489
 O         6.506928        0.861948       12.265717
 O         6.503705        0.833215       16.795301
 O         6.553996        5.403787       16.782394
 O         1.327173        1.614452       16.854919
 O         9.071166        9.015212       12.345648
 O        13.000797       11.769431       10.068573
 O        14.311049       12.730825       12.266513
 O        12.977363       11.824164       14.487236
 O        10.371758        8.038153       14.568708
 O        10.400128       12.726473       14.531546
 O        12.960005        9.033612       10.064062
 O        12.890291        9.070369       14.470517
 O         9.111916       11.812733       16.798086
 O         9.100470       11.761868       12.310697
 O        10.416969       12.678329       10.089564
 O        10.360637        8.152172       10.098203
 O        14.257421        8.052566       12.277473
 O        14.235656        8.350851       16.810322
 O        14.249580       12.753375       16.734600
 O         9.114788        9.051922       16.783367
 O         1.284408        9.034231       12.279201
 O         5.242235       11.807864       10.029628
 O         6.521698       12.715082       12.290233
 O         5.224542       11.839190       14.531199
 O         2.641161        8.200276       14.496653
 O         2.613030       12.684201       14.551466
 O         5.204610        9.068583       10.006707
 O         5.242989        9.098980       14.511374
 O         1.317554       11.841883       16.804537
 O         1.332018       11.775897       12.298688
 O         2.641815       12.693980       10.074703
 O         2.615978        8.172275       10.043438
 O         6.480681        8.153337       12.252641
 O         6.526129        8.151908       16.751987
 O         6.512177       12.698064       16.790432
 O         1.336489        9.117617       16.774281
 H         9.564907        1.435005       13.073289
 H         9.578455        1.411450       11.527540
 H        13.450097        4.814604       10.814099
 H        13.459367        4.833659        9.269450
 H        14.251481        6.322309       12.369419
 H        15.168261        5.069557       12.383739
 H        11.898520        4.782903       14.314741
 H        13.386435        4.749807       13.523563
 H        10.397280       14.487435       14.561936
 H         9.938122        1.131032       15.357615
 H        10.469346        6.316465       14.480725
 H         9.973238        5.095881       13.635464
 H        13.435326        1.464121       10.838893
 H        12.972060        2.714149       10.061202
 H        12.849598        3.384435       14.367862
 H        12.017613        1.470516       14.564941
 H         9.632341        4.736513       15.976602
 H         9.137979        3.502697       16.754885
 H         9.559750        4.793453       11.452798
 H         9.112410        3.541106       12.245915
 H         9.945159        5.080960        9.242968
 H        11.294787        5.080735       10.004789
 H        11.293118        1.121064       10.064621
 H        10.415533       14.450431       10.076757
 H        13.843983        1.201618       13.083142
 H        15.196528        1.221621       12.338798
 H        13.760026        1.248938       17.539562
 H        13.363619        1.567877       15.343039
 H         8.191397        1.412392       16.808878
 H         9.518764        1.420840       17.601997
 H         9.493833        8.723403        4.179053
 H         8.148798        8.726868        3.406187
 H        13.411174       12.148935        0.281250
 H        12.951653       10.906441        1.083502
 H        13.855980       12.410719        2.516679
 H        15.185151       12.394540        3.311462
 H        13.423464       12.169412        4.762397
 H        12.083375       12.172324        5.537913
 H        11.292108        8.509953        5.617200
 H         9.966513        8.505692        6.415011
 H         9.951999       12.429493        6.370563
 H        10.364139       13.693870        5.584657
 H        13.352025        8.861797        0.340848
 H        12.020829        8.805277        1.113012
 H        13.420188        8.791294        4.789949
 H        12.992249       10.062778        5.555971
 H         9.584159       12.108736        8.627663
 H         9.116964       10.863108        7.847698
 H         9.554374       12.096562        4.134825
 H         9.097146       10.826324        3.378911
 H        11.286171       12.424921        1.129926
 H         9.944674       12.379325        1.899648
 H        10.328757        7.225955        1.134801
 H         9.873404        8.472212        1.921449
 H        13.779261        8.482143        2.555520
 H        14.229454        7.223991        3.337955
 H        13.772717        8.467348        8.585290
 H        13.784983        8.496115        7.038669
 H        13.815874       12.406362        7.017305
 H        14.253538       13.658604        7.802742
 H         9.508265        8.747485        8.655123
 H         8.189736        8.744128        7.847137
 H         1.740987        8.735663        2.547825
 H         0.399402        8.732975        3.320295
 H         4.315212       12.118963        1.117658
 H         5.655254       12.127763        1.888901
 H         7.415454       12.370992        3.364884
 H         6.077901       12.366081        4.140604
 H         5.666821       12.139548        6.384686
 H         4.318994       12.135350        5.626306
 H         2.164517        8.484894        4.790810
 H         3.504407        8.505798        5.567340
 H         2.174677       12.414204        6.407620
 H         2.612654       13.674135        5.626979
 H         5.686496        8.768940        0.261437
 H         5.249037       10.027305        1.047508
 H         5.216692       10.030720        5.568674
 H         5.635175        8.772268        4.770760
 H         0.409755       12.098494        7.839692
 H         1.293045       10.832367        7.839383
 H         1.792722       12.078223        4.164054
 H         1.335905       10.819096        3.387966
 H         2.174672       12.364362        1.917567
 H         2.615643       13.639451        1.171407
 H         2.182701        8.504572        0.299454
 H         3.527416        8.526634        1.059886
 H         6.453154        7.191142        3.328434
 H         6.033219        8.448071        2.528692
 H         6.048270        8.437372        6.994898
 H         6.490054        7.175982        7.774211
 H         6.555033       13.704247        7.812704
 H         7.460338       12.447081        7.815498
 H         1.734158        8.738361        7.022897
 H         0.395059        8.723269        7.800811
 H         1.280588        2.741347        3.380696
 H         0.373730        1.487067        3.355029
 H         5.742598        4.792371        0.320338
 H         5.272779        3.535672        1.092697
 H         7.395704        5.104731        3.383023
 H         6.083878        5.075667        2.572447
 H         4.287436        4.843924        5.586050
 H         5.621078        4.826541        4.800068
 H         2.130280        1.187605        6.375189
 H         2.116390        1.185756        4.829976
 H         2.602762        6.406138        5.645527
 H         2.163344        5.138375        6.419841
 H         5.676681        1.417187        1.883393
 H         5.669414        1.411571        0.336609
 H         4.264225        1.456972        5.596415
 H         5.160708        2.715442        5.586108
 H         1.294376        3.542639        7.852524
 H         0.397941        4.802264        7.842286
 H         1.801665        4.847770        2.631591
 H         1.796122        4.840400        4.171873
 H         3.636989        5.187579        1.232016
 H         2.686562        6.411947        1.167238
 H         2.177048        1.161415        1.961810
 H         3.517158        1.147204        1.183093
 H         6.013088        1.131895        4.148359
 H         6.481211       14.476223        3.377907
 H         6.027620        1.188493        7.042933
 H         6.016837        1.196238        8.587296
 H         6.021815        5.054218        7.042869
 H         6.003097        5.073742        8.588042
 H         0.399842        1.424302        7.856561
 H         1.733910        1.418735        8.638743
 H         9.027910        2.742419        3.363404
 H         8.130520        1.479126        3.360806
 H        13.364882        4.855587        2.008650
 H        13.259682        4.963220        0.487434
 H        15.164869        5.113106        3.436630
 H        13.842795        5.097593        4.241272
 H        12.041064        4.782840        5.632877
 H        12.926004        3.511448        5.627095
 H         9.896558        1.194316        6.354084
 H         9.877706        1.201171        4.807577
 H        10.384964        6.390026        5.628742
 H         9.916926        5.128550        6.390248
 H        12.912608        2.738417        1.115206
 H        12.015446        1.482961        1.089503
 H        13.384495        1.423112        4.778811
 H        12.046046        1.411658        5.553602
 H         9.059303        3.536357        7.832228
 H         8.157441        4.791397        7.831585
 H         9.538080        4.844264        4.147638
 H         9.498878        4.842832        2.599616
 H        11.201355        5.122717        1.176403
 H         9.914039        5.098722        0.333373
 H        10.334257       14.503987        1.146378
 H         9.881539        1.170372        1.908493
 H        13.779404        1.165031        2.530729
 H        14.248884       14.509490        3.299373
 H        13.774750        1.168673        8.579825
 H        13.785424        1.161514        7.033536
 H        14.250844        6.376679        7.802058
 H        13.796512        5.095107        7.061227
 H         8.173050        1.434480        7.855594
 H         9.514571        1.412224        8.626169
 H         1.784850        1.470557       13.142179
 H         1.350039        2.739447       12.363719
 H         4.254139        4.860811       10.089880
 H         5.606688        4.838324       10.842223
 H         7.416164        5.098477       12.256653
 H         6.108172        5.076572       13.070004
 H         5.753067        4.781933       15.315963
 H         5.289844        3.519546       14.543419
 H         2.613057       14.442523       14.545687
 H         2.168387        1.059226       15.370860
 H         2.407995        5.098982       15.278327
 H         3.662264        5.132148       14.428514
 H         4.272242        1.463120       10.058945
 H         5.142386        2.740518       10.044342
 H         5.646368        1.416227       13.730374
 H         4.315462        1.405858       14.519758
 H         2.184735        4.706359       17.645998
 H         1.487432        2.555063       16.864975
 H         1.735062        4.866904       11.536800
 H         1.799576        4.872811       13.076940
 H         2.574069        6.405774       10.051064
 H         2.125474        5.130562        9.296930
 H         2.148586        1.127641       10.888298
 H         2.600781       14.470528       10.108287
 H         6.069242        1.197493       11.476383
 H         7.409465        1.194719       12.251951
 H         6.052155        1.127589       15.998425
 H         6.497205       14.471994       16.775211
 H         7.472338        5.117032       16.769445
 H         6.561826        6.367280       16.774338
 H         1.753643        1.282402       17.652792
 H        -0.424910        1.221220       16.791111
 H         9.489459        8.670897       13.141498
 H         8.162122        8.696043       12.339164
 H        13.451472       12.097198        9.282439
 H        13.482955       12.114523       10.827642
 H        14.336689       13.691424       12.271570
 H        15.224319       12.421912       12.278501
 H        13.443698       12.140829       15.268398
 H        13.460497       12.157441       13.724659
 H         9.951456        8.375872       15.368203
 H        11.262967        8.409044       14.556334
 H         9.951101       12.376956       13.754803
 H        11.305025       12.395913       14.498872
 H        12.956964        9.996918       10.075115
 H        12.039412        8.751781       10.078389
 H        12.927373       10.031072       14.439248
 H        13.381587        8.743846       13.712532
 H         9.582208       12.143274       16.026918
 H         9.573662       12.148616       17.573900
 H         8.189824       12.074982       12.302581
 H         9.064757       10.799857       12.326924
 H        11.321536       12.347668       10.107236
 H         9.976630       12.339733       10.876496
 H         9.907170        8.431490       10.901284
 H        10.359797        7.190011       10.096347
 H        13.824669        8.395121       11.487693
 H        15.158195        8.396083       12.270256
 H        13.754273        8.556129       16.002232
 H        14.149047        7.396319       16.923969
 H        14.253521       13.714278       16.735428
 H        15.168252       12.466598       16.767719
 H         9.135598       10.013780       16.793318
 H         9.546699        8.761337       17.596003
 H         1.769297        8.719341       11.508831
 H         1.771432        8.730212       13.053700
 H         5.718679       12.151547        9.265413
 H         5.703546       12.129922       10.810809
 H         6.056282       12.433630       13.085596
 H         6.514129       13.677503       12.294407
 H         5.656107       12.150570       15.334256
 H         4.311899       12.144487       14.564076
 H         2.691483        7.240748       14.498120
 H         3.550044        8.518064       14.507611
 H         2.145668       12.341758       13.782553
 H         2.142755       12.370708       15.332898
 H         5.235944       10.031354        9.994567
 H         5.666477        8.764021        9.218045
 H         5.253551       10.061832       14.496872
 H         5.678207        8.799907       13.706754
 H         1.775524       12.122346       17.603807
 H         1.324295       10.877195       16.810902
 H         1.809367       12.066480       11.513922
 H         1.317315       10.812722       12.272615
 H         3.550648       12.377853       10.034380
 H         2.195511       12.365914        9.285850
 H         3.520299        8.502420       10.008967
 H         2.169526        8.499530        9.254414
 H         6.465664        7.190598       12.237627
 H         6.034498        8.454147       11.453572
 H         6.098695        8.489120       15.958112
 H         7.429524        8.487341       16.745371
 H         6.079068       12.371001       17.586475
 H         7.418691       12.372967       16.809532
 H         0.422450        8.811109       16.761292
 H         1.754576        8.780531       15.977718
