381
 generated by VMD
 O         9.071836        1.768328       12.253520
 O        12.982376        4.483284       10.078474
 O        14.219846        5.322658       12.347133
 O        12.855237        4.389453       14.697136
 O        10.739284        0.665285       14.004499
 O        10.432052        5.451260       14.566719
 O        12.940287        1.740087       10.017240
 O        12.881622        1.936828       14.792179
 O         9.093012        4.721581       16.814861
 O         9.129033        4.493672       12.307733
 O        10.413584        5.408446       10.054405
 O        10.361400        0.853870       10.004549
 O        14.342163        0.901132       12.284621
 O        14.093376        1.067746       16.735411
 O        14.184923        5.397399       16.769566
 O         9.086210        9.047967        3.347846
 O        12.986603       11.845716        1.078126
 O        14.280359       12.688786        3.351185
 O        12.973370       11.781496        5.591656
 O        10.392920        8.145882        5.565364
 O        10.388241       12.702239        5.586010
 O        13.009953        9.097133        1.055301
 O        12.969944        9.040479        5.572768
 O         9.074719       11.782360        7.826586
 O         9.097773       11.786117        3.356638
 O        10.392023       12.694652        1.115541
 O        10.403244        8.200871        1.112653
 O        14.264009        8.178153        3.314129
 O        14.265287        8.155874        7.808547
 O        14.289243       12.716419        7.795267
 O         9.115602        9.046766        7.804911
 O         1.315938        9.069569        3.344923
 O         5.195195       11.802752        1.126072
 O         6.508244       12.692574        3.349542
 O         5.206266       11.834206        5.583371
 O         2.615881        8.171250        5.586293
 O         2.623629       12.714675        5.589674
 O         5.167718        9.054620        1.092413
 O         5.200541        9.101620        5.569374
 O         1.335327       11.800287        7.834849
 O         1.337627       11.805680        3.351476
 O         2.622843       12.732105        1.124301
 O         2.565872        8.145278        1.080940
 O         6.487465        8.175450        3.328121
 O         6.514802        8.166751        7.787424
 O         6.506955       12.726566        7.822911
 O         1.320212        9.067460        7.828860
 O         1.297302        1.803917        3.372469
 O         5.157127        4.511258        1.108710
 O         6.499355        5.429730        3.335949
 O         5.216580        4.506152        5.563343
 O         2.601726        0.854128        5.572441
 O         2.643471        5.431640        5.602564
 O         5.109567        1.802697        1.173170
 O         5.191032        1.766092        5.555926
 O         1.362075        4.475746        7.836958
 O         1.328431        4.547303        3.367808
 O         2.590737        5.407063        1.093519
 O         2.493500        0.860406        1.106603
 O         6.471924        0.830581        3.358581
 O         6.487483        0.861926        7.774277
 O         6.489016        5.425967        7.800688
 O         1.340870        1.730374        7.839509
 O         9.036385        1.782577        3.420856
 O        13.028918        4.523256        1.120122
 O        14.282873        5.442868        3.378812
 O        12.994843        4.513377        5.597190
 O        10.401318        0.844560        5.622396
 O        10.403654        5.419860        5.620454
 O        13.049103        1.748274        1.126063
 O        12.982866        1.772488        5.563785
 O         9.077662        4.501842        7.848174
 O         9.085062        4.542128        3.370282
 O        10.432035        5.497564        1.164291
 O        10.464223        0.839318        1.258824
 O        14.295319        0.827268        3.354543
 O        14.273626        0.853920        7.781225
 O        14.319751        5.413855        7.840046
 O         9.060615        1.764928        7.802855
 O         1.330508        1.788520       12.310418
 O         5.224061        4.497074       10.033699
 O         6.502250        5.363373       12.303145
 O         5.142534        4.494752       14.542089
 O         2.524362        0.863591       14.553120
 O         2.601223        5.450826       14.570968
 O         5.210132        1.760155       10.023583
 O         5.054389        1.783755       14.474025
 O         1.276076        4.499444       16.764521
 O         1.333190        4.520017       12.350374
 O         2.625209        5.401839       10.085482
 O         2.636893        0.832436       10.087461
 O         6.504354        0.856161       12.272584
 O         6.015866        0.775294       16.680414
 O         6.427422        5.424825       16.800894
 O         1.143659        1.773995       16.744488
 O         9.063231        9.003483       12.274408
 O        13.021778       11.819086       10.048631
 O        14.287373       12.715661       12.288347
 O        13.060719       11.740497       14.544364
 O        10.387321        8.183095       14.529128
 O        10.438086       12.525907       14.472685
 O        13.011103        9.074286       10.061676
 O        12.982619        9.010285       14.507752
 O         9.107780       11.763086       16.801624
 O         9.071815       11.724401       12.226005
 O        10.417067       12.703231       10.045405
 O        10.418089        8.139682       10.053789
 O        14.284677        8.083139       12.294726
 O        14.273864        8.120444       16.751581
 O        14.239764       12.775922       16.812489
 O         9.089864        9.026673       16.791510
 O         1.324764        9.032185       12.295174
 O         5.187492       11.761075       10.030696
 O         6.490460       12.700866       12.254414
 O         5.211657       11.789909       14.516887
 O         2.620402        8.180861       14.560664
 O         2.611373       12.723833       14.573850
 O         5.209067        9.022156       10.041510
 O         5.220863        9.052634       14.540391
 O         1.316883       11.832756       16.838987
 O         1.335531       11.766260       12.344923
 O         2.603807       12.693608       10.087633
 O         2.618244        8.137357       10.053038
 O         6.481156        8.100303       12.298137
 O         6.490687        8.149267       16.811522
 O         6.478470       12.612746       16.833696
 O         1.306839        9.084516       16.785330
 H         9.055921        2.731540       12.291545
 H         8.156114        1.462550       12.288278
 H        12.941494        3.522662       10.041115
 H        12.071207        4.799208       10.053072
 H        13.761451        5.006341       11.557991
 H        13.737658        4.991690       13.102635
 H        11.963512        4.787203       14.675813
 H        13.320268        4.778776       15.460611
 H        12.021400        1.517917       14.622256
 H        10.110638        1.083165       13.384721
 H        10.424519        6.415941       14.554394
 H         9.931033        5.190874       15.352387
 H        12.035761        1.405882       10.038374
 H        13.386729        1.418313       10.802011
 H        13.353682        1.572488       15.648277
 H        12.821391        2.974674       14.785876
 H         8.145468        4.906138       16.817574
 H         9.186062        3.767975       16.910194
 H         9.580973        4.834383       13.085043
 H         9.595283        4.835104       11.537111
 H        10.410089        6.371800       10.029093
 H         9.933344        5.107654        9.274461
 H         9.896909        1.171343        9.219548
 H         9.872354        1.192444       10.759988
 H        13.954197        1.252227       13.075289
 H        15.256744        1.226468       12.273903
 H        15.030347        1.333516       16.737329
 H        13.712744        1.315647       17.601015
 H        13.776058        5.112622       17.598059
 H        14.203414        6.362256       16.783808
 H         8.176482        8.733697        3.309905
 H         9.528676        8.733900        2.551150
 H        12.073108       12.155325        1.111554
 H        13.416759       12.149533        1.884746
 H        15.184352       12.356037        3.370463
 H        13.841554       12.355246        4.140582
 H        12.947867       10.818372        5.587818
 H        12.057826       12.081620        5.586233
 H        10.379012        7.182337        5.559973
 H         9.921375        8.438204        4.776747
 H         9.910676       12.374934        6.354603
 H         9.919264       12.378129        4.808465
 H        13.019628       10.059376        1.032059
 H        13.450735        8.789270        0.257796
 H        12.064053        8.711770        5.545181
 H        13.402400        8.731089        4.769513
 H         9.098720       10.819251        7.837291
 H         9.554123       12.079922        8.605606
 H         9.551206       12.085941        2.561108
 H         9.108385       10.823101        3.335877
 H        10.372250       13.658166        1.122317
 H         9.931621       12.411141        0.319251
 H        10.449777        7.236669        1.134981
 H        11.312079        8.515335        1.096027
 H        13.844294        8.508271        2.512848
 H        15.168320        8.510902        3.311288
 H        14.274570        7.193216        7.794778
 H        13.804094        8.441449        7.011502
 H        13.822324       12.402236        7.012423
 H        14.269756       13.678761        7.762098
 H         9.584743        8.714598        8.576518
 H         9.585932        8.721427        7.028872
 H         1.343728       10.032385        3.361283
 H         1.773639        8.766799        4.136508
 H         5.183475       10.840410        1.107732
 H         5.656178       12.080948        0.323996
 H         7.411698       12.360424        3.324503
 H         6.070145       12.367381        2.554602
 H         5.683686       12.160883        6.353072
 H         5.677737       12.151734        4.803997
 H         2.621166        7.208374        5.611015
 H         2.156296        8.465137        6.379717
 H         2.194660       12.378370        6.383255
 H         3.533942       12.398342        5.607951
 H         5.611859        8.728690        0.301891
 H         4.265627        8.721684        1.062868
 H         5.176422       10.064819        5.572576
 H         4.286825        8.798304        5.577744
 H         0.434263       12.140444        7.834606
 H         1.756164       12.127376        8.637150
 H         1.805248       12.137695        4.125482
 H         1.806129       12.141592        2.579100
 H         3.542849       12.442913        1.116522
 H         2.623687       13.695097        1.117162
 H         2.560867        7.182277        1.101396
 H         2.125060        8.444122        1.883096
 H         6.023991        8.513927        4.101032
 H         6.008376        8.494622        2.555863
 H         7.422549        8.486660        7.765538
 H         6.074248        8.514017        7.004111
 H         7.407564       12.385864        7.848458
 H         6.057771       12.380873        8.601045
 H         1.301876       10.030842        7.833008
 H         0.403676        8.772253        7.821439
 H         1.319160        2.766578        3.395566
 H         1.772511        1.492988        4.151243
 H         5.168046        3.546415        1.145684
 H         5.633843        4.820045        1.885379
 H         6.514306        6.392198        3.334825
 H         7.418117        5.138750        3.336899
 H         5.221168        3.543157        5.535603
 H         5.669589        4.810047        4.768070
 H         2.160911        1.144932        6.377612
 H         2.597361       14.493111        5.590968
 H         2.213603        5.083287        6.390308
 H         3.547491        5.097186        5.608392
 H         4.212147        1.464903        1.193620
 H         5.573250        1.439353        1.933199
 H         4.284667        1.443262        5.536851
 H         5.627735        1.420623        4.767072
 H         1.370575        3.513015        7.853493
 H         1.812951        4.773064        8.634424
 H         1.794676        4.855302        2.583104
 H         1.812648        4.875793        4.132944
 H         2.156057        5.072392        0.304841
 H         3.499010        5.079372        1.077083
 H         2.038111        1.206977        1.881286
 H         2.025564        1.182484        0.334388
 H         7.380027        1.153190        3.355283
 H         6.518818       14.471334        3.342498
 H         6.022062        1.152532        6.981026
 H         6.478512       14.501002        7.770193
 H         6.487377        6.388615        7.770034
 H         6.044855        5.120716        7.001433
 H         0.432750        1.410871        7.846254
 H         1.769164        1.390559        8.631933
 H         9.509283        1.497925        4.207641
 H         9.061348        2.744523        3.407457
 H        13.017334        3.562129        1.145764
 H        13.475809        4.818535        1.920786
 H        15.202606        5.155245        3.377091
 H        14.293154        6.405903        3.350925
 H        13.475092        4.832450        6.367172
 H        13.453502        4.861356        4.823785
 H        11.314725        1.146909        5.597526
 H        10.421771       14.484250        5.602287
 H        11.306761        5.087065        5.639235
 H         9.960274        5.084306        6.405893
 H        13.499788        1.404146        1.907637
 H        12.134044        1.447044        1.190880
 H        12.995259        2.735421        5.540622
 H        13.439386        1.465756        4.772845
 H         9.045190        3.539203        7.831504
 H         8.165316        4.809952        7.826507
 H         9.567278        4.857078        2.598854
 H         9.559195        4.864294        4.142343
 H         9.970701        5.208809        0.370391
 H        11.314246        5.117982        1.119326
 H         9.948549        1.184833        1.998073
 H        10.104010        1.274245        0.478549
 H        15.206676        1.141060        3.374503
 H        14.322637       14.466526        3.360624
 H        13.820733        1.195006        7.000759
 H        13.784922        1.175157        8.543983
 H        13.879984        5.081782        8.627688
 H        15.221402        5.075048        7.859253
 H         8.155993        1.433234        7.765286
 H         9.512831        1.435214        7.017501
 H         1.358862        2.751743       12.342278
 H         1.764970        1.467632       13.112635
 H         5.645120        4.844676        9.239215
 H         4.319695        4.826054       10.035710
 H         7.409456        5.046341       12.289697
 H         6.079994        5.043500       11.498925
 H         5.134424        3.528861       14.519528
 H         5.626771        4.778845       13.761660
 H         2.571098       14.503580       14.563075
 H         3.439779        1.178924       14.528555
 H         2.639920        6.413563       14.575981
 H         3.513206        5.132721       14.562867
 H         5.657842        1.463016        9.223797
 H         5.225399        2.723287       10.006577
 H         5.569215        1.452871       13.735483
 H         5.452740        1.413710       15.283320
 H         1.726589        4.852456       15.988590
 H         0.377068        4.838647       16.746334
 H         0.420867        4.819718       12.373706
 H         1.766036        4.870420       13.138764
 H         2.611234        6.365256       10.087786
 H         2.173438        5.117103       10.885531
 H         2.216536        1.187808       10.876088
 H         3.541304        1.166621       10.079359
 H         6.052961        1.151043       11.475043
 H         6.487665       14.496202       12.256518
 H         6.230140       14.453617       16.790976
 H         5.794455        1.128959       17.539793
 H         5.975855        5.067272       16.030676
 H         5.974799        5.077402       17.577057
 H         1.223139        2.735333       16.734726
 H         1.643520        1.452597       15.984301
 H         9.026265        9.965480       12.240436
 H         8.151258        8.691569       12.277788
 H        13.031936       10.855649       10.038177
 H        13.474430       12.110570        9.249008
 H        14.297878       13.674055       12.262534
 H        13.836642       12.418889       11.488136
 H        13.497256       12.096942       15.324096
 H        13.518372       12.090506       13.773269
 H         9.894587        8.488390       13.759475
 H         9.910721        8.486068       15.310719
 H        10.488977       13.470868       14.382771
 H        11.351694       12.223166       14.505610
 H        13.479988        8.718260       10.822607
 H        13.460006        8.739125        9.277250
 H        12.994981        9.972438       14.521085
 H        12.055507        8.744653       14.517845
 H         9.561892       12.037274       16.003374
 H         9.104709       10.799836       16.794621
 H         9.560066       11.992162       13.009916
 H         9.556067       12.071561       11.469432
 H        11.337075       12.420226       10.036597
 H        10.416858       13.665224       10.025783
 H        11.315938        8.484373       10.087979
 H         9.961805        8.452298       10.842687
 H        14.254032        7.123326       12.327283
 H        13.817707        8.397243       13.077350
 H        15.175690        8.459517       16.736786
 H        13.839107        8.440308       15.954178
 H        14.170362       13.728068       16.813189
 H        13.779377       12.468409       17.605793
 H         9.532222        8.713861       17.588009
 H         8.183942        8.699882       16.824984
 H         0.429927        8.678423       12.272899
 H         1.770519        8.713850       11.502385
 H         4.273142       12.061100       10.046137
 H         5.168070       10.798170       10.033961
 H         6.047782       12.357675       11.471148
 H         7.388790       12.359071       12.233532
 H         5.638316       12.133533       13.726110
 H         4.316682       12.141620       14.526812
 H         2.150765        8.492332       13.780411
 H         2.149136        8.519452       15.329516
 H         2.158964       12.395425       15.356793
 H         2.146767       12.363323       13.811975
 H         5.689445        8.706465        9.268525
 H         5.668560        8.685312       10.817953
 H         5.206760       10.016136       14.527776
 H         4.301159        8.769056       14.550484
 H         0.423006       12.182267       16.865313
 H         1.766868       12.158347       17.627405
 H         0.422685       12.066503       12.320279
 H         1.312312       10.803074       12.323746
 H         2.164446       12.392699       10.889353
 H         2.613888       13.656192       10.116994
 H         2.181468        8.474439        9.263229
 H         3.528099        8.453351       10.026927
 H         6.032412        8.411358       13.092063
 H         6.472938        7.137640       12.328922
 H         6.457011        7.185422       16.788954
 H         6.047823        8.457429       16.014612
 H         6.071733       12.305476       16.019682
 H         7.399768       12.341990       16.806261
 H         1.318886       10.046072       16.828707
 H         1.751362        8.766839       17.579847
