381
 generated by VMD
 O         9.067694        1.761850       12.327710
 O        12.973939        4.490067       10.075658
 O        14.271299        5.416555       12.312758
 O        12.973778        4.535174       14.546356
 O        10.391374        0.841030       14.548998
 O        10.385210        5.410450       14.564842
 O        12.977274        1.762799       10.043910
 O        12.963184        1.788833       14.520594
 O         9.084095        4.495229       16.800699
 O         9.085163        4.505316       12.319096
 O        10.396993        5.403539       10.081169
 O        10.392786        0.861407       10.091266
 O        14.266983        0.890955       12.297013
 O        14.269823        0.868974       16.748634
 O        14.283962        5.417562       16.798744
 O         9.108409        1.763644       16.790672
 O         8.820284        9.140037        3.226718
 O        12.971113       11.802490        1.030653
 O        14.212317       12.712422        3.295974
 O        13.000870       11.780868        5.566442
 O        10.378169        8.204772        5.542282
 O        10.409566       12.672406        5.549037
 O        12.892371        9.075561        1.067620
 O        12.966952        9.020370        5.525261
 O         9.219508       11.819218        7.892197
 O         9.168604       11.766390        3.284260
 O        10.405563       12.707047        1.031232
 O        10.297157        8.171995        1.175257
 O        14.254062        8.162240        3.264416
 O        14.254670        8.146139        7.795297
 O        14.199793       12.732060        7.856138
 O         9.158442        9.105774        7.863087
 O         1.307316        9.074184        3.267798
 O         5.147594       11.847538        1.065760
 O         6.650555       12.833228        3.178139
 O         2.520393        8.065782        5.550250
 O         2.288350       12.711421        5.489492
 O         5.218588        8.980438        1.175240
 O         5.145985        8.579274        5.435650
 O         1.248489       11.757964        7.908674
 O         1.258608       11.763603        3.281091
 O         2.589085       12.690918        1.112766
 O         2.664742        8.190992        1.095986
 O         6.476888        8.406795        3.228086
 O         6.598835        8.222044        7.914488
 O         6.611409       12.741693        7.961898
 O         1.311602        9.045928        7.804126
 O         1.325052        1.761113        3.287969
 O         5.197162        4.480051        1.091153
 O         6.495655        5.367981        3.272466
 O         5.206312        4.535339        5.626264
 O         2.609586        0.896769        5.598800
 O         2.547778        5.334347        5.618860
 O         5.192572        1.783492        1.076798
 O         5.234689        1.758671        5.590461
 O         1.269233        4.454497        7.848887
 O         1.303125        4.521863        3.314946
 O         2.630621        5.413526        1.112953
 O         2.636790        0.826013        1.082789
 O         6.538341        0.961241        3.287244
 O         6.517098        0.882938        7.862162
 O         6.527090        5.451243        7.868221
 O         1.291524        1.737874        7.820649
 O         9.166655        1.761712        3.301285
 O        12.972251        4.505786        1.088762
 O        14.253844        5.428868        3.329443
 O        12.937166        4.527738        5.563416
 O        10.368429        0.822846        5.565428
 O        10.375215        5.445824        5.569827
 O        12.975471        1.775007        1.050027
 O        12.937860        1.777764        5.530863
 O         9.110166        4.509096        7.828021
 O         9.129131        4.506843        3.339117
 O        10.373451        5.442849        1.088362
 O        10.412477        0.834585        1.055525
 O        14.261977        0.866768        3.306046
 O        14.230193        0.869454        7.782110
 O        14.224662        5.402557        7.812752
 O         9.124879        1.758434        7.827559
 O         1.327547        1.765159       12.293083
 O         5.197700        4.515732       10.075332
 O         6.493894        5.388335       12.332086
 O         5.191899        4.512002       14.571393
 O         2.610497        0.830599       14.534399
 O         2.598220        5.408329       14.559749
 O         5.203553        1.783506       10.074868
 O         5.184461        1.759265       14.570618
 O         1.329923        4.481603       16.808306
 O         1.314547        4.500724       12.310982
 O         2.599275        5.405846       10.057403
 O         2.614924        0.860191       10.059780
 O         6.480337        0.848362       12.326904
 O         6.508573        0.887961       16.797340
 O         6.512197        5.418481       16.819204
 O         1.342106        1.748113       16.782965
 O         9.091607        9.043087       12.351286
 O        13.005381       11.797995       10.115199
 O        14.294912       12.751481       12.344151
 O        12.964207       11.793076       14.547444
 O        10.379044        8.154442       14.581957
 O        10.381680       12.703959       14.589602
 O        12.980001        9.070094       10.055320
 O        12.983985        9.038221       14.533662
 O         9.034648       11.802082       16.799910
 O         9.101812       11.782693       12.347109
 O        10.440664       12.736180       10.158896
 O        10.383994        8.146993       10.117008
 O        14.280823        8.151844       12.282459
 O        14.243032        8.153899       16.796726
 O        14.271332       12.727633       16.759800
 O         9.021187        9.051138       16.827579
 O         1.324865        9.070689       12.282363
 O         5.207736       11.801391       10.133331
 O         6.505949       12.708428       12.352376
 O         5.216894       11.774235       14.581378
 O         2.566565        8.151106       14.548599
 O         2.628335       12.691098       14.589209
 O         5.237086        9.044245       10.161841
 O         5.164413        9.041672       14.658907
 O         1.308773       11.778598       16.816656
 O         1.327872       11.803541       12.343726
 O         2.619529       12.729887       10.102495
 O         2.639536        8.156466       10.056519
 O         6.505860        8.118943       12.417331
 O         6.414985        8.127270       16.893097
 O         6.477332       12.755221       16.799700
 O         1.308633        9.031209       16.816263
 H         9.047662        2.724219       12.323860
 H         8.151932        1.463192       12.326319
 H        13.434246        4.787038       10.867409
 H        12.988051        3.526184       10.085715
 H        15.185627        5.112624       12.309481
 H        14.298562        6.379437       12.289853
 H        13.446699        4.865666       13.773983
 H        13.451532        4.848615       15.320938
 H         9.940599        1.168679       13.763029
 H        11.291735        1.181847       14.514663
 H        11.304446        5.120740       14.560439
 H        10.400216        6.373101       14.573537
 H        13.393517        1.439338        9.237158
 H        12.071216        1.434685       10.044556
 H        12.971557        2.751647       14.510595
 H        13.425900        1.499745       13.725953
 H         9.107629        3.531528       16.777380
 H         9.545408        4.800160       16.011362
 H         9.561869        4.828886       11.547236
 H         9.553403        4.834232       13.093477
 H        11.300493        5.069043       10.062623
 H         9.964410        5.077793        9.285052
 H         9.927096        1.163864       10.877433
 H        10.396222       14.500313       10.129085
 H        13.836864        1.198155       11.491535
 H        15.175559        1.210345       12.271098
 H        15.177049        1.191149       16.738428
 H        13.839601        1.212368       15.958281
 H        15.185417        5.079932       16.823168
 H        13.841265        5.083972       17.586060
 H         9.581462        1.424885       17.559330
 H         9.569517        1.431746       16.012659
 H         9.344641        8.801158        2.483335
 H         8.946195       10.108662        3.258771
 H        12.067947       12.136853        0.997127
 H        13.420155       12.141433        0.248298
 H        14.223433       13.674573        3.283819
 H        13.759168       12.426988        2.496394
 H        13.442395       12.091262        4.768101
 H        13.015934       10.820304        5.535492
 H         9.911515        8.551328        4.786695
 H        11.288922        8.523918        5.493805
 H        11.318831       12.355758        5.578255
 H         9.985399       12.363167        6.356296
 H        13.348137        8.762460        0.278902
 H        12.929110       10.039231        1.038294
 H        13.446213        8.698300        4.754451
 H        13.431322        8.696368        6.304621
 H         8.318254       12.156314        7.915189
 H         9.650571       12.153167        8.686365
 H         9.582460       12.074307        4.101845
 H         8.288482       12.161850        3.264059
 H         9.973634       12.370480        1.823267
 H         9.900840       12.379291        0.278811
 H        10.343354        7.208351        1.151026
 H        11.208033        8.489064        1.148686
 H        13.797336        8.501667        2.487267
 H        15.155357        8.500188        3.230706
 H        13.816700        8.488509        8.581612
 H        15.161679        8.470578        7.823545
 H        13.785074       12.410459        7.049448
 H        14.197026       13.693375        7.803388
 H         9.593451        8.819291        7.056365
 H         9.182355       10.072162        7.860529
 H         1.717885        8.759165        4.076865
 H         1.306298       10.042565        3.307809
 H         5.135748       10.893940        1.094902
 H         4.224359       12.135698        1.098220
 H         6.302157       12.501494        4.012595
 H         6.085692       12.473089        2.485543
 H         2.458716        7.105295        5.601481
 H         2.105506        8.417886        6.347647
 H         1.979999       12.402269        6.339396
 H         2.452564       13.649236        5.569074
 H         4.289227        8.692035        1.147292
 H         5.641332        8.660701        0.358874
 H         5.979576        8.576023        4.054711
 H         4.186140        8.402806        5.469647
 H         1.715460       12.111922        8.670546
 H         0.356696       12.115306        7.930126
 H         1.656240       12.114640        4.100059
 H         0.354280       12.090002        3.278134
 H         2.114023       12.362786        1.888736
 H         2.116708       12.364191        0.340083
 H         2.171466        8.521318        1.859288
 H         2.188195        8.492541        0.312967
 H         7.455200        8.765287        3.239279
 H         5.946171        8.670848        2.389074
 H         6.157943        8.541304        7.137200
 H         7.501531        8.564361        7.877903
 H         6.307430       12.418859        7.110379
 H         6.562950       13.703915        7.900501
 H         1.302648       10.011658        7.837575
 H         1.781989        8.754101        8.591043
 H         0.412631        1.453403        3.305818
 H         1.289243        2.721636        3.289181
 H         4.283636        4.788589        1.095871
 H         5.164002        3.513496        1.078504
 H         6.023347        5.033576        2.494444
 H         6.500472        6.312293        3.190629
 H         5.689377        4.865419        6.391052
 H         5.671337        4.839743        4.846341
 H         3.528963        1.175029        5.569335
 H         2.196299        1.208389        4.790161
 H         3.461163        5.036222        5.647951
 H         2.114844        4.992560        6.410744
 H         4.298684        1.421903        1.103256
 H         5.645858        1.477327        1.872447
 H         5.237143        2.718194        5.585683
 H         5.697405        1.476349        4.795270
 H         1.246434        3.489604        7.846034
 H         0.356365        4.760067        7.838124
 H         0.398040        4.851366        3.337152
 H         1.721292        4.801305        4.135747
 H         2.156101        5.124485        1.902062
 H         2.617105        6.374363        1.119260
 H         2.614022       14.465367        1.116315
 H         2.169054        1.137802        1.866238
 H         6.566296       14.600424        3.266961
 H         7.457932        1.245542        3.291690
 H         7.424297        1.200753        7.818698
 H         6.082822        1.168762        7.051683
 H         6.542609        6.410528        7.919375
 H         6.057595        5.137911        8.649891
 H         1.764802        1.408435        8.591895
 H         1.775882        1.429864        7.044107
 H         9.582858        1.440416        4.109681
 H         9.191279        2.721799        3.338764
 H        12.945202        3.541906        1.075442
 H        12.059713        4.809077        1.081393
 H        13.800806        5.109680        2.541533
 H        14.243061        6.390854        3.281354
 H        13.407174        4.838912        6.345115
 H        13.418659        4.855171        4.796400
 H        10.362495       14.461586        5.573543
 H         9.916655        1.112214        6.365178
 H        10.403426        6.406703        5.564312
 H        11.291381        5.142111        5.568698
 H        13.416409        1.450583        0.257855
 H        12.078772        1.422511        1.032737
 H        12.028260        1.460981        5.548144
 H        12.902526        2.739048        5.540439
 H         9.532007        4.849091        7.033057
 H         8.205108        4.836240        7.825792
 H         8.213732        4.792375        3.357911
 H         9.550277        4.850527        4.136210
 H         9.910703        5.099398        0.316088
 H         9.922935        5.093563        1.864412
 H        10.392348       14.473626        1.071730
 H         9.969769        1.136388        1.856766
 H        13.798738        1.197960        2.530379
 H        13.783785        1.194410        4.074875
 H        13.807199        1.203598        6.984766
 H        15.144523        1.173304        7.766517
 H        14.226648        6.365512        7.835156
 H        13.777797        5.106168        8.613049
 H         9.140007        2.719816        7.844852
 H         9.571238        1.457711        8.626038
 H         1.788634        1.417810       13.063864
 H         1.798771        1.437141       11.518311
 H         5.181004        3.551425       10.071472
 H         4.279570        4.806580       10.068049
 H         7.401049        5.065663       12.299140
 H         6.052415        5.073225       11.535774
 H         5.671390        4.841533       15.336864
 H         5.664500        4.822874       13.791308
 H         2.637264       14.470114       14.548399
 H         3.524686        1.134115       14.544681
 H         2.167293        5.073756       15.353390
 H         3.505879        5.087670       14.581270
 H         5.662611        1.443458       10.849335
 H         5.681934        1.459401        9.302508
 H         5.191211        2.721473       14.583299
 H         5.656465        1.472234       15.359905
 H         1.348016        3.517798       16.820536
 H         1.788839        4.780526       17.598776
 H         1.772972        4.795030       13.104678
 H         1.330670        3.537188       12.324277
 H         2.136214        5.084157       10.837766
 H         2.118811        5.067930        9.294250
 H         3.529122        1.162671       10.055423
 H         2.642860       14.498687       10.069443
 H         6.477320       14.487556       12.349441
 H         6.018868        1.146001       13.117374
 H         7.417194        1.206295       16.820005
 H         6.071541        1.217665       17.590191
 H         7.415110        5.079915       16.827646
 H         6.069166        5.060920       17.595688
 H         1.804418        1.402087       17.554125
 H         1.807659        1.416925       16.007084
 H         9.521367        8.712707       11.554176
 H         8.189107        8.708394       12.345923
 H        13.437540       12.143194        9.325038
 H        13.489881       12.137609       10.874342
 H        14.267776       13.714018       12.354254
 H        13.816970       12.445602       13.121527
 H        12.955192       10.830656       14.536170
 H        12.045307       12.081345       14.561515
 H         9.902943        8.480500       15.350256
 H         9.909434        8.478851       13.804697
 H        10.377733       13.667298       14.591122
 H         9.906873       12.419333       15.376836
 H        12.962633       10.033690       10.076688
 H        12.065258        8.772270       10.079927
 H        12.078844        8.711767       14.522680
 H        13.413568        8.714241       13.734511
 H         8.123666       12.116971       16.804735
 H         9.001270       10.840987       16.796768
 H         9.550555       12.080869       13.144958
 H         9.108451       10.820217       12.364824
 H         9.990165       12.382886       10.933150
 H        11.344056       12.402380       10.180593
 H        10.382793        7.184486       10.081214
 H         9.951601        8.456665        9.314041
 H        15.183315        8.489171       12.264483
 H        13.846443        8.482999       11.488682
 H        13.802944        8.441345       15.989240
 H        14.244735        7.190558       16.783047
 H        14.266403       13.690458       16.733013
 H        13.811646       12.422506       15.970087
 H         8.121532        8.713494       16.854074
 H         9.457983        8.735241       17.623787
 H         1.790836        8.780582       11.490861
 H         1.336384       10.034422       12.279826
 H         5.674987       12.101349        9.345841
 H         5.225697       10.840001       10.117043
 H         6.066135       12.381728       11.558457
 H         7.409941       12.379294       12.323646
 H         5.680755       12.100329       13.801796
 H         5.675428       12.136950       15.347012
 H         2.129552        8.451932       13.744175
 H         2.564487        7.188266       14.525627
 H         2.192710       12.360509       15.381660
 H         3.531257       12.357392       14.603942
 H         5.741499        8.748788        9.399426
 H         5.693787        8.717578       10.943713
 H         4.243989        8.761300       14.614279
 H         5.166315       10.005383       14.628240
 H         1.275086       10.816842       16.814877
 H         0.398348       12.092010       16.790371
 H         1.763475       12.123147       13.140438
 H         0.429279       12.150158       12.360965
 H         2.193047       12.403455       10.900730
 H         3.519964       12.389162       10.110052
 H         3.558879        8.440675       10.083390
 H         2.645878        7.193871       10.057263
 H         6.040581        8.413594       13.205464
 H         6.485164        7.155806       12.419051
 H         5.961432        8.439786       16.099079
 H         6.442545        7.163324       16.839115
 H         6.483029       13.718859       16.817158
 H         6.001592       12.466330       17.585354
 H         0.400931        8.707993       16.801811
 H         1.725001        8.715369       16.006607
