381
 generated by VMD
 O         9.063327        1.780436       12.331937
 O        12.950846        4.502904       10.036210
 O        14.266114        5.413959       12.258060
 O        12.965724        4.482186       14.474929
 O        10.356462        0.848817       14.571849
 O        10.374327        5.410517       14.566268
 O        12.964903        1.778565       10.077497
 O        12.947539        1.739745       14.546617
 O         9.091553        4.519603       16.816689
 O         9.061481        4.524101       12.328207
 O        10.357936        5.399296       10.073110
 O        10.375754        0.882542       10.090516
 O        14.272616        0.889611       12.320812
 O        14.252982        0.878281       16.785091
 O        14.269508        5.397535       16.734842
 O         9.073241        1.772389       16.800732
 O         9.126018        9.042075        3.343622
 O        12.995565       11.818956        1.071766
 O        14.244200       12.757129        3.320192
 O        12.991045       11.821477        5.545847
 O        10.397579        8.177700        5.611566
 O        10.386976       12.701233        5.567585
 O        12.959686        9.073014        1.083074
 O        12.990910        9.070829        5.634300
 O         9.095705       11.807597        7.837462
 O         9.092864       11.778606        3.354458
 O        10.400390       12.707065        1.124702
 O        10.404122        8.153236        1.093652
 O        14.155884        8.124168        3.385165
 O        14.186350        8.164464        7.905613
 O        14.218574       12.762886        7.784412
 O         9.121005        9.067392        7.844955
 O         1.246799        9.102777        2.961960
 O         5.209575       11.779043        1.065143
 O         6.509133       12.697721        3.302336
 O         5.244987       11.840386        5.584059
 O         2.645359       12.748671        5.593823
 O         5.234463        9.043421        1.072004
 O         5.366033        9.088079        5.619253
 O         1.313660       11.948195        7.884994
 O         1.328066       11.887136        3.320115
 O         2.616743       12.704948        1.088282
 O         2.677350        8.118392        0.994703
 O         6.558833        8.126384        3.302007
 O         6.560274        8.130774        7.995111
 O         6.498405       12.713447        7.835909
 O         1.054907        9.217887        8.433991
 O         1.297424        1.765987        3.306036
 O         5.218754        4.472058        1.077060
 O         6.523024        5.372730        3.305017
 O         5.301823        4.429705        5.583745
 O         2.617926        0.872771        5.552161
 O         2.686138        5.265896        5.555104
 O         5.183907        1.726956        1.076409
 O         5.233191        1.696158        5.563537
 O         1.344703        4.502001        7.787036
 O         1.331111        4.495868        3.264959
 O         2.629628        5.410606        1.024590
 O         2.596769        0.829821        1.080470
 O         6.505952        0.834170        3.303166
 O         6.499212        0.846302        7.853641
 O         6.512478        5.392245        7.843718
 O         1.307221        1.753308        7.820649
 O         9.075648        1.776031        3.349702
 O        12.976997        4.486219        1.044832
 O        14.252539        5.362936        3.321778
 O        12.955181        4.518242        5.568645
 O        10.382862        0.835247        5.580814
 O        10.380497        5.428401        5.613042
 O        12.948972        1.746433        1.076952
 O        12.950972        1.782067        5.582243
 O         9.090404        4.473855        7.832615
 O         9.122651        4.506864        3.357220
 O        10.397608        5.419488        1.114895
 O        10.354047        0.847907        1.108013
 O        14.239114        0.890099        3.326262
 O        14.239541        0.889693        7.839597
 O        14.275933        5.407660        7.808030
 O         9.087499        1.733914        7.812247
 O         1.306999        1.830134       12.301776
 O         5.184377        4.526851       10.044285
 O         6.476795        5.418209       12.303025
 O         5.159223        4.503107       14.544732
 O         2.605787        0.844604       14.532805
 O         2.576561        5.441718       14.535736
 O         5.203226        1.803976       10.060609
 O         5.187473        1.760755       14.548177
 O         1.324999        4.494750       16.761717
 O         1.365297        4.625663       12.241561
 O         2.720658        5.549081       10.107164
 O         2.617347        0.907693       10.079023
 O         6.482454        0.850507       12.308615
 O         6.496415        0.854677       16.787996
 O         6.489495        5.382319       16.797628
 O         1.321743        1.755224       16.797792
 O         9.011997        9.066698       12.306705
 O        12.942593       11.821690       10.031670
 O        14.265218       12.747635       12.261050
 O        12.977640       11.823912       14.512528
 O        10.368258        8.155002       14.536302
 O        10.387767       12.711007       14.571061
 O        12.854019        9.073899       10.111683
 O        12.951775        9.078746       14.517789
 O         9.128467       11.796103       16.820438
 O         9.101112       11.813314       12.329986
 O        10.366976       12.753839       10.077397
 O        10.297110        8.135149       10.105737
 O        14.259062        8.146792       12.261285
 O        14.241996        8.147664       16.776438
 O        14.262847       12.743961       16.763601
 O         9.093632        9.056975       16.798927
 O         1.250781        9.050403       12.356755
 O         5.181239       11.769184       10.107405
 O         6.513336       12.703991       12.291858
 O         5.219680       11.793031       14.557014
 O         2.597817        8.176086       14.607107
 O         2.620280       12.699497       14.567991
 O         5.068059        8.865919       10.034110
 O         5.181316        9.053685       14.520812
 O         1.319359       11.830087       16.800989
 O         1.331871       11.823053       12.347730
 O         2.626148       12.778794       10.133641
 O         2.787116        8.010308        9.973516
 O         6.363016        8.137614       12.251330
 O         6.528869        8.116076       16.753759
 O         6.536759       12.710227       16.760281
 O         1.287931        9.093795       16.747328
 H         8.149816        1.475947       12.321033
 H         9.035541        2.742909       12.333587
 H        12.962938        3.538793       10.028545
 H        13.416521        4.791784        9.244450
 H        13.798373        5.078423       11.484549
 H        13.797166        5.073967       13.029374
 H        12.054173        4.790423       14.513518
 H        12.932776        3.519831       14.499539
 H         9.890756        1.189495       15.344179
 H         9.889384        1.183345       13.799203
 H         9.924058        5.117104       15.366393
 H        10.366152        6.373072       14.582194
 H        13.442348        1.458544       10.849832
 H        13.430430        1.444082        9.301903
 H        13.388032        1.432754       15.347172
 H        12.043540        1.408436       14.577530
 H         9.523978        4.846931       17.613068
 H         8.183114        4.839071       16.836926
 H         9.539314        4.840819       11.554116
 H         9.533605        4.848151       13.103235
 H         9.921527        5.056633        9.284504
 H        11.265775        5.079544       10.040975
 H        11.281440        1.209183       10.113103
 H         9.934141        1.221509       10.876023
 H        13.798351        1.164920       13.113873
 H        14.266854       14.529136       12.316672
 H        13.816886        1.192579       17.585178
 H        15.159678        1.201907       16.810965
 H        13.842564        5.064119       15.940419
 H        15.176192        5.072187       16.725401
 H         8.154975        1.480004       16.800100
 H         9.058968        2.735383       16.811228
 H         9.564911        8.720263        2.548965
 H         8.222692        8.705296        3.312878
 H        12.088404       12.141718        1.066314
 H        13.416507       12.152800        0.273135
 H        14.224881       13.719461        3.294218
 H        13.813851       12.445455        2.516957
 H        13.413327       12.157215        4.745992
 H        12.079739       12.131560        5.529421
 H        11.302480        8.507989        5.594586
 H         9.970664        8.488781        4.805300
 H         9.909240       12.361491        4.801799
 H         9.925110       12.378879        6.347377
 H        13.000633       10.034776        1.072083
 H        13.426843        8.766389        0.300019
 H        13.421906        8.740492        4.834306
 H        13.013881       10.031474        5.579907
 H         8.190072       12.133458        7.850906
 H         9.525470       12.155525        8.625516
 H         9.078216       10.814855        3.346367
 H         8.175697       12.072809        3.331177
 H        10.368495       13.669322        1.142555
 H         9.943160       12.399131        1.914682
 H        11.303991        8.499761        1.070260
 H         9.961632        8.476874        0.302814
 H        13.726265        8.419207        2.578124
 H        14.188139        7.164275        3.349244
 H        13.643494        8.466041        8.642431
 H        13.772610        8.496181        7.097526
 H        15.136368       12.478131        7.782828
 H        13.814870       12.426450        6.974808
 H         9.118318       10.030661        7.826150
 H         9.568329        8.774725        7.041699
 H         0.373077        8.780571        3.170527
 H         1.262160       10.039889        3.145145
 H         5.669549       12.076823        0.275557
 H         5.225484       10.815016        1.050559
 H         6.046781       12.395187        2.513581
 H         6.503732       13.660546        3.277337
 H         5.688095       12.130790        4.779363
 H         5.270687       10.877622        5.576563
 H         3.544740       12.403927        5.597998
 H         2.217668       12.419512        6.386653
 H         4.328002        8.710036        1.047525
 H         5.671082        8.706264        0.285268
 H         4.489835        8.688775        5.631465
 H         5.779392        8.759851        6.422466
 H         1.264097       11.005184        7.994938
 H         1.772464       12.274551        8.666903
 H         0.424150       12.211413        3.351932
 H         1.761623       12.173269        4.127956
 H         2.183314       12.389331        1.891779
 H         3.516793       12.364100        1.101345
 H         2.214617        8.449350        0.222417
 H         2.170707        8.462764        1.751433
 H         6.064312        8.460818        2.546323
 H         6.118108        8.453700        4.091512
 H         7.476124        8.429386        7.956748
 H         6.564205        7.170301        7.907243
 H         6.017010       12.369747        8.590834
 H         6.043174       12.400512        7.043710
 H         2.218305        8.384190        9.279220
 H         0.194188        8.818857        8.204741
 H         1.328829        2.730063        3.301219
 H         1.765248        1.477237        4.096122
 H         5.674347        4.771033        1.872450
 H         5.211634        3.509936        1.105349
 H         6.525921        6.335660        3.314008
 H         7.444733        5.095903        3.317189
 H         5.722166        4.751890        4.779663
 H         5.312273        3.468202        5.544446
 H         2.158519        1.163920        6.344979
 H         2.613432       14.510982        5.571658
 H         3.603716        4.963055        5.563486
 H         2.757938        6.223628        5.615214
 H         4.277680        1.401664        1.107501
 H         5.626177        1.399408        1.867056
 H         4.315228        1.405246        5.582749
 H         5.648510        1.377267        6.370511
 H         1.829231        4.858266        8.528018
 H         1.828171        4.780941        6.996080
 H         1.813094        4.810510        4.035996
 H         1.796240        4.841204        2.495177
 H         3.541941        5.106494        1.050523
 H         2.659410        6.376814        1.027067
 H         2.134363        1.134294        1.869071
 H         2.590670       14.467926        1.106396
 H         7.404696        1.179511        3.329079
 H         6.071166        1.140869        4.106349
 H         6.525041       14.485733        7.854656
 H         7.414650        1.146124        7.835239
 H         7.412546        5.049376        7.819610
 H         6.080995        5.080737        7.038295
 H         1.327641        2.715310        7.823502
 H         1.772656        1.469328        8.613785
 H         9.536226        1.463991        4.135248
 H         9.102645        2.739234        3.375775
 H        13.432839        4.778112        0.249406
 H        12.972347        3.523436        1.028647
 H        13.827568        5.039520        2.521538
 H        15.167813        5.064981        3.288724
 H        13.430029        4.821488        4.785530
 H        13.438359        4.847432        6.332390
 H        10.406388       14.474334        5.564312
 H        11.296705        1.139724        5.576932
 H        11.297894        5.134101        5.595592
 H        10.400551        6.391149        5.616860
 H        13.383185        1.436777        1.879749
 H        12.043972        1.418633        1.104019
 H        12.949557        2.745571        5.594660
 H        13.410628        1.496705        6.378105
 H         9.101439        3.511379        7.796463
 H         9.547865        4.789059        7.044971
 H         9.575230        4.850558        4.134469
 H         9.597638        4.838480        2.587583
 H        11.310254        5.113337        1.086029
 H        10.427506        6.382647        1.110901
 H         9.885912        1.176906        0.333918
 H         9.890958        1.191485        1.879790
 H        13.813614        1.217227        4.125388
 H        15.147113        1.213348        3.340952
 H        14.241878       14.528948        7.807883
 H        15.160975        1.170452        7.828751
 H        14.278573        6.368495        7.827271
 H        15.195540        5.125243        7.786661
 H         9.559175        1.396676        7.042060
 H         9.560369        1.423112        8.590499
 H         0.387751        1.539708       12.308376
 H         1.300410        2.790026       12.287450
 H         5.649253        4.820493        9.248229
 H         5.195013        3.561417       10.025487
 H         7.387810        5.102040       12.301858
 H         6.063376        5.079151       11.502838
 H         4.261491        4.850288       14.526863
 H         5.601389        4.829083       13.755280
 H         2.594999       14.484276       14.511639
 H         2.145037        1.154315       13.747977
 H         2.573890        6.402882       14.599745
 H         2.131843        5.111150       15.326396
 H         5.644753        1.459030        9.275434
 H         4.297710        1.476845       10.037965
 H         5.155543        2.723060       14.551469
 H         4.274615        1.454130       14.545799
 H         1.788575        4.806845       17.549501
 H         1.338861        3.532377       16.797256
 H         0.445609        4.914341       12.257777
 H         1.763142        4.922478       13.070015
 H         2.251903        5.212896       10.888872
 H         3.607927        5.147871       10.089532
 H         2.615463       14.548169       10.121201
 H         2.154492        1.217317       10.864458
 H         6.016973        1.191005       11.537872
 H         6.012347        1.175863       13.084223
 H         6.022401        1.181595       16.016850
 H         6.015226        1.166654       17.563078
 H         6.025055        5.051957       17.576775
 H         6.013791        5.053072       16.029778
 H         1.786666        1.412771       17.570398
 H         1.784661        1.421750       16.023664
 H         9.443018        8.723415       11.514712
 H         8.106594        8.749963       12.281713
 H        12.045775       12.174216       10.034156
 H        13.364185       12.146092        9.228862
 H        15.166935       12.414145       12.262722
 H        13.836929       12.414907       11.465388
 H        12.071145       12.150736       14.511690
 H        13.398822       12.161505       13.716304
 H        11.267761        8.497020       14.505335
 H         9.915315        8.481534       13.753475
 H        10.358302       13.673644       14.590595
 H         9.947959       12.403931       15.372108
 H        11.936457        8.778065       10.126709
 H        12.845120       10.036829       10.086598
 H        12.977270       10.041749       14.503238
 H        13.413254        8.777220       13.731049
 H         9.576534       12.086729       17.622271
 H         9.123266       10.832971       16.835585
 H         9.088584       10.850977       12.340578
 H         9.554127       12.098039       13.131485
 H         9.925933       12.444427       10.875082
 H        10.355562       13.717096       10.106979
 H        10.308670        7.171905       10.073613
 H         9.881669        8.439569        9.289753
 H        14.231738        7.182774       12.248235
 H        13.755704        8.453990       11.498332
 H        14.241745        7.185073       16.754086
 H        13.782392        8.443581       15.985662
 H        13.814931       12.444152       15.966528
 H        14.247409       13.706914       16.748159
 H         9.527596        8.731521       16.004419
 H         8.192136        8.717327       16.776772
 H         0.342002        8.716930       12.306028
 H         1.713262        8.693415       11.609957
 H         5.672094       12.062282       10.885840
 H         5.174379       10.815133       10.117044
 H         6.517649       13.667351       12.288260
 H         7.434627       12.421642       12.308048
 H         5.701434       12.122622       15.325290
 H         5.682462       12.124932       13.781717
 H         2.127098        8.511974       15.384060
 H         2.105878        8.490535       13.846681
 H         3.526893       12.376195       14.592483
 H         2.185861       12.387682       15.371333
 H         5.533657        8.589169       10.844227
 H         5.627239        8.600736        9.274523
 H         5.183379       10.017069       14.543911
 H         4.259825        8.776535       14.567266
 H         0.419443       12.171860       16.813538
 H         1.750797       12.140087       17.606480
 H         1.781562       12.114763       13.151073
 H         1.315267       10.864497       12.376197
 H         3.522619       12.429137       10.140235
 H         2.190547       12.436198       10.921618
 H         2.759447        6.979880        9.996515
 H         3.775308        8.377578        9.951616
 H         5.939051        8.446373       13.062489
 H         6.408545        7.175253       12.307201
 H         6.500882        7.152956       16.750465
 H         6.058174        8.413421       15.970565
 H         7.453941       12.418550       16.786350
 H         6.547775       13.672991       16.774584
 H         0.376359        8.786770       16.780561
 H         1.267177       10.055809       16.789539
