381
 generated by VMD
 O         9.056139        1.765246       12.283091
 O        12.958069        4.520954       10.101097
 O        14.248165        5.400845       12.353878
 O        12.960526        4.466008       14.593971
 O        10.342320        0.850548       14.525592
 O        10.389636        5.413406       14.555432
 O        12.927742        1.785516       10.074474
 O        12.943462        1.722717       14.551769
 O         9.114568        4.520611       16.814783
 O         9.100326        4.505336       12.303959
 O        10.380834        5.428768       10.069138
 O        10.346426        0.857870       10.043804
 O        14.232101        0.848299       12.298922
 O        14.294692        0.868884       16.772692
 O        14.284110        5.378099       16.801603
 O         9.099997        1.783451       16.799099
 O         9.074355        9.078725        3.314887
 O        12.928801       11.820831        1.084517
 O        14.203880       12.848071        3.307006
 O        12.985206       11.867876        5.571604
 O        10.340937        8.173407        5.570245
 O        10.372654       12.730454        5.584427
 O        12.978365        9.083891        1.082937
 O        12.926525        9.115541        5.555447
 O         9.141662       11.773373        7.835450
 O         9.107927       11.823684        3.322943
 O        10.386287       12.745670        1.081630
 O        10.386450        8.166737        1.085648
 O        14.215808        8.157480        3.357942
 O        14.175733        8.157880        7.820230
 O        14.233678       12.711797        7.875270
 O         9.088634        9.032875        7.838309
 O         1.338457        8.925315        3.351920
 O         5.252625       11.791504        1.069185
 O         6.532257       12.732868        3.303439
 O         5.344938       11.771831        5.584166
 O         2.604267        8.163036        5.682440
 O         5.216600        9.063241        1.075045
 O         5.221574        9.018638        5.577883
 O         1.266198       11.747858        8.003862
 O         0.784679       11.530784        2.577997
 O         2.705783       12.733004        0.970590
 O         2.638721        8.158825        1.115280
 O         6.491871        8.156417        3.322052
 O         6.511264        8.129012        7.823332
 O         6.569791       12.714418        7.854461
 O         1.264012        9.010118        7.936264
 O         1.307651        1.585161        3.167939
 O         5.227849        4.488734        1.039917
 O         6.504975        5.409717        3.302197
 O         5.221457        4.513177        5.545338
 O         2.575244        1.419332        5.396466
 O         2.621146        5.386389        5.633062
 O         5.178725        1.726584        1.062311
 O         5.220001        1.754393        5.501633
 O         1.290906        4.525490        7.890112
 O         1.353639        4.598048        3.253829
 O         2.654643        5.397156        1.048462
 O         2.608546        0.966654        1.134635
 O         6.520218        0.853064        3.268125
 O         6.476860        0.841761        7.758607
 O         6.485076        5.377797        7.837627
 O         1.249130        1.754635        7.913236
 O         9.108547        1.763373        3.290437
 O        12.981344        4.479893        1.125247
 O        14.252700        5.471916        3.352811
 O        12.980266        4.494822        5.576136
 O        10.389362        0.844744        5.529940
 O        10.369123        5.404771        5.585989
 O        13.144344        1.752628        1.136011
 O        13.007294        1.779717        5.517309
 O         9.081006        4.499558        7.835076
 O         9.091807        4.512894        3.330123
 O        10.411676        5.430669        1.107593
 O        10.470127        0.863641        1.076666
 O        14.556003        0.817086        3.197030
 O        14.210472        0.868219        7.851074
 O        14.220710        5.406462        7.835921
 O         9.066143        1.754941        7.775373
 O         1.280769        1.776277       12.381167
 O         5.167068        4.491122       10.079707
 O         6.504415        5.392187       12.305680
 O         5.231782        4.502615       14.552221
 O         2.627082        0.836991       14.591365
 O         2.648039        5.432919       14.584085
 O         5.195540        1.742055       10.035922
 O         5.218523        1.752941       14.539776
 O         1.336121        4.492073       16.773796
 O         1.308028        4.514366       12.380851
 O         2.586796        5.428717       10.147422
 O         2.600559        0.853627       10.157461
 O         6.478377        0.851235       12.291101
 O         6.507010        0.862967       16.786520
 O         6.527980        5.427237       16.780495
 O         1.338963        1.774055       16.872686
 O         9.083072        9.059491       12.340117
 O        12.956349       11.814411       10.110269
 O        14.272817       12.717063       12.345549
 O        12.964797       11.800562       14.588451
 O        10.391905        8.159174       14.580555
 O        10.380591       12.709181       14.534704
 O        12.932078        9.071188       10.086461
 O        12.983142        9.062992       14.582823
 O         9.114731       11.816506       16.786768
 O         9.064370       11.794809       12.321964
 O        10.377626       12.702971       10.097986
 O        10.358105        8.149040       10.099156
 O        14.235779        8.143597       12.318326
 O        14.300693        8.137000       16.798256
 O        14.255149       12.744039       16.807335
 O         9.081928        9.078352       16.805269
 O         1.295482        9.041515       12.362308
 O         5.234030       11.775596       10.081134
 O         6.488418       12.713363       12.340345
 O         5.203342       11.782682       14.583589
 O         2.615970        8.152772       14.578684
 O         2.634199       12.712716       14.585090
 O         5.217055        9.050952       10.067131
 O         5.205356        9.043581       14.540027
 O         1.311369       11.802590       16.776003
 O         1.296302       11.782141       12.401855
 O         2.646530       12.688498       10.191289
 O         2.619139        8.148786       10.135972
 O         6.493834        8.130430       12.296902
 O         6.502730        8.165745       16.781055
 O         6.543874       12.704986       16.785322
 O         1.344106        9.066838       16.819809
 H         9.514238        1.462495       11.491261
 H         9.084419        2.727930       12.267299
 H        13.390921        4.844097       10.898482
 H        12.054836        4.856816       10.113981
 H        13.815815        5.063641       13.145028
 H        15.158153        5.085456       12.379111
 H        12.925028        3.503854       14.571872
 H        12.049789        4.780293       14.577124
 H         9.883657        1.186560       15.302014
 H         9.872554        1.184055       13.753460
 H         9.934758        5.118113       15.351174
 H        10.383314        6.376493       14.578829
 H        12.947504        2.747989       10.113957
 H        13.386989        1.466077       10.859004
 H        12.035819        1.401337       14.524117
 H        13.375922        1.405189       13.750961
 H         8.210777        4.853550       16.827160
 H         9.548160        4.856507       17.606592
 H         9.567906        4.842083       11.531802
 H         9.568711        4.830987       13.079435
 H         9.921766        5.121222        9.280540
 H        10.358390        6.392586       10.051042
 H        11.246555        1.199305       10.031408
 H         9.916477        1.170968        9.241506
 H        14.268983       14.487036       12.306245
 H        15.143513        1.158186       12.327400
 H        13.817039        1.155534       15.985419
 H        14.272191       14.505959       16.768093
 H        13.817373        5.063423       17.581430
 H        13.798847        5.047667       16.036789
 H         9.117898        2.746411       16.827394
 H         9.582038        1.477019       17.572895
 H         9.498915        8.753601        4.116086
 H         8.168943        8.749907        3.333615
 H        13.365258       12.145105        1.877639
 H        12.981098       10.858877        1.107784
 H        15.034078       12.360995        3.145229
 H        13.820151       12.509113        4.123050
 H        13.415980       12.164503        6.380422
 H        12.077190       12.185216        5.605190
 H         9.896158        8.458204        6.376924
 H        10.350191        7.212067        5.589187
 H         9.917703       12.382782        6.359717
 H         9.909493       12.393776        4.809718
 H        13.427080        8.745406        0.301900
 H        12.075255        8.751758        1.054200
 H        12.927936       10.078612        5.563488
 H        12.007136        8.830972        5.561088
 H         9.135605       10.810658        7.857463
 H         9.592925       12.070358        8.632567
 H         8.192202       12.125240        3.315820
 H         9.077404       10.861029        3.316435
 H         9.944275       12.415612        1.872065
 H        11.282557       12.388484        1.099592
 H         9.920070        8.501150        1.859631
 H         9.910131        8.495363        0.315315
 H        13.784638        8.507745        2.571779
 H        13.748837        8.519919        4.119505
 H        14.167308        7.196537        7.793934
 H        13.742059        8.467945        7.019238
 H        14.264085       13.672299        7.866088
 H        15.148215       12.407012        7.896921
 H         8.179875        8.711641        7.852816
 H         9.513323        8.708405        8.639263
 H         1.760895        8.704362        4.186885
 H         0.425705        8.632068        3.404947
 H         5.246914       10.827877        1.056662
 H         5.721905       12.081163        0.279798
 H         6.079893       12.405053        4.089242
 H         6.057163       12.384358        2.541338
 H         5.761602       12.105755        6.389013
 H         4.425875       12.045328        5.653061
 H         2.144561        8.470927        6.470542
 H         2.598102        7.204431        5.715074
 H         5.652009        8.741109        1.872092
 H         4.307066        8.746674        1.113145
 H         5.245690        9.981512        5.587519
 H         4.292075        8.769267        5.615459
 H         1.766998       12.084539        8.757459
 H         1.774436       12.012916        7.231396
 H         1.528569       11.933196        2.135862
 H         1.076724       10.696357        2.941954
 H         2.733753       13.682978        1.048451
 H         3.614405       12.414419        1.026021
 H         2.640926        7.198778        1.098034
 H         2.176038        8.415950        1.923918
 H         6.487861        7.194652        3.332732
 H         6.027400        8.444591        4.117049
 H         6.050900        8.424869        7.029561
 H         6.490228        7.167359        7.812451
 H         6.107473       12.374288        8.627368
 H         7.469066       12.372988        7.888739
 H         0.345164        8.728998        7.899858
 H         1.253444        9.973676        7.955617
 H         0.305064        1.200631        3.179301
 H         1.851364        1.312890        2.353501
 H         5.244462        3.527875        1.019166
 H         5.693941        4.797965        0.253834
 H         7.412529        5.086665        3.289493
 H         6.079913        5.081518        2.504174
 H         5.680424        4.829983        4.759138
 H         5.266507        3.553564        5.516598
 H         3.547793        1.495217        5.426978
 H         1.801191        1.444225        4.002667
 H         2.204753        5.121457        4.811855
 H         3.534019        5.081966        5.588552
 H         5.668658        1.406985        1.830717
 H         5.647627        1.401302        0.283600
 H         5.700630        1.412989        4.738873
 H         5.650041        1.398174        6.289122
 H         1.287951        3.564312        7.889124
 H         1.759276        4.801631        7.096268
 H         1.314121        3.653552        3.181352
 H         1.825271        4.901787        2.463561
 H         3.562136        5.072824        1.018879
 H         2.213385        5.080988        0.252229
 H         2.167917        1.267046        0.322053
 H         3.534101        1.258913        1.096228
 H         6.540935       14.489816        3.282585
 H         7.436271        1.151272        3.268431
 H         6.487742       14.480018        7.802460
 H         6.021414        1.142452        8.551720
 H         5.997029        5.059877        8.604745
 H         6.022979        5.061533        7.055970
 H         0.344232        1.420827        7.879969
 H         1.680035        1.448762        7.125598
 H         9.599459        1.446461        2.525625
 H         9.566354        1.424801        4.067736
 H        12.076649        4.813374        1.128419
 H        13.408134        4.846844        1.906573
 H        15.177532        5.219917        3.323605
 H        14.233374        6.439421        3.353394
 H        13.434020        4.819546        6.362556
 H        13.440662        4.865273        4.815567
 H        10.402718       14.482160        5.556132
 H        11.303654        1.136456        5.525877
 H         9.933778        5.078819        6.381197
 H        11.273882        5.080290        5.609801
 H        13.536966        1.478841        0.297816
 H        13.085900        2.715951        1.120033
 H        13.516018        1.495397        4.763606
 H        13.010544        2.745946        5.508643
 H         8.163960        4.795026        7.836629
 H         9.055937        3.536909        7.820264
 H         9.538523        4.805244        4.132230
 H         9.109831        3.550303        3.338417
 H         9.943842        5.136490        1.896414
 H        10.396678        6.394664        1.117897
 H        10.464524       14.500385        1.079908
 H        11.389372        1.135343        1.098300
 H        14.041929        1.146753        2.437208
 H        14.428742       14.443294        3.249881
 H        13.731917        1.204284        8.617888
 H        13.758526        1.191658        7.068656
 H        13.789448        5.090755        8.637628
 H        15.132008        5.099822        7.874279
 H         9.502876        1.432338        6.981515
 H         8.161861        1.422166        7.752350
 H         1.305927        2.739017       12.404492
 H         1.749050        1.466328       13.162494
 H         5.622693        4.811254       10.865155
 H         4.267088        4.830746       10.124130
 H         6.523170        6.355704       12.298316
 H         7.421940        5.099426       12.299246
 H         5.682708        4.795558       13.751940
 H         5.230043        3.540009       14.529958
 H         2.186113        1.128423       15.392618
 H         2.618967       14.474288       14.604502
 H         2.665150        6.397374       14.587900
 H         3.563014        5.132590       14.573334
 H         4.282069        1.438779       10.073824
 H         5.162836        2.704017       10.051529
 H         4.314935        1.421033       14.534498
 H         5.639500        1.426916       13.735887
 H         0.430967        4.823305       16.759365
 H         1.776097        4.833654       15.985856
 H         1.767871        4.842044       11.599504
 H         1.791190        4.851917       13.142351
 H         2.130345        5.137173        9.352757
 H         2.590554        6.393427       10.126473
 H         2.113807        1.148947        9.384698
 H         2.130507        1.194438       10.925266
 H         7.383252        1.180952       12.268367
 H         6.048237        1.167770       11.489063
 H         6.080864        1.180287       15.982326
 H         7.408202        1.201931       16.778416
 H         6.504766        6.390742       16.763561
 H         6.078089        5.123346       15.984300
 H         1.313749        2.737499       16.817572
 H         0.425712        1.467587       16.821350
 H         9.542123        8.766648       13.134115
 H         9.085206       10.022820       12.355468
 H        13.440202       12.133300       10.879266
 H        13.421757       12.144404        9.332742
 H        15.175107       12.378233       12.379222
 H        13.829032       12.390716       13.134793
 H        12.048824       12.096900       14.563623
 H        12.948165       10.837507       14.586973
 H        11.298507        8.483006       14.606115
 H         9.952997        8.492752       15.370349
 H        10.356672       13.671324       14.511000
 H         9.910122       12.403650       13.750637
 H        13.371828        8.774847        9.282294
 H        12.956467       10.034200       10.077042
 H        13.436242        8.735508       13.798543
 H        13.468163        8.728769       15.344936
 H         9.582453       12.139584       16.008753
 H         9.582027       12.151256       17.559908
 H         8.159341       12.125472       12.304591
 H         9.500136       12.122215       11.527540
 H        11.297749       12.415220       10.111327
 H        10.388065       13.664799       10.076606
 H        11.259542        8.489915       10.110570
 H         9.926179        8.477743       10.895241
 H        13.776931        8.445379       11.527053
 H        14.219191        7.181293       12.304912
 H        14.324026        7.175733       16.799349
 H        15.214981        8.441107       16.813887
 H        13.786583       12.408943       17.579206
 H        13.788915       12.403129       16.035471
 H         8.165200        8.782265       16.792389
 H         9.065713       10.041311       16.800034
 H         0.391334        8.713620       12.317534
 H         1.747978        8.725613       11.572299
 H         5.656600       12.108179       10.878842
 H         4.327368       12.100832       10.101029
 H         6.031166       12.414270       13.132742
 H         6.468927       13.675786       12.348087
 H         5.682213       12.072263       15.367012
 H         5.218859       10.819766       14.581981
 H         2.163797        8.490346       15.360046
 H         2.126008        8.471150       13.811891
 H         2.184474       12.375869       15.368793
 H         3.535479       12.372529       14.609241
 H         5.662008        8.751830        9.267683
 H         5.229791       10.015310       10.047960
 H         5.635856        8.713387       13.743834
 H         4.297125        8.723428       14.523761
 H         0.407961       12.131030       16.819777
 H         1.774414       12.143981       17.548761
 H         1.776003       12.075350       13.184065
 H         1.310490       10.819388       12.404818
 H         2.176914       12.394898       10.978281
 H         2.618900       13.649058       10.189933
 H         2.158804        8.468167        9.350660
 H         3.521880        8.481069       10.086061
 H         7.395170        8.468599       12.293419
 H         6.067590        8.465374       11.498971
 H         6.029828        8.487116       16.005541
 H         6.027344        8.487873       17.555189
 H         6.551034       13.666709       16.779861
 H         7.464920       12.420246       16.779442
 H         1.795988        8.782177       17.621532
 H         1.332438       10.030129       16.834805
