381
 generated by VMD
 O         9.107356        1.782315       12.304235
 O        12.974630        4.516675       10.066347
 O        14.240348        5.373458       12.344668
 O        12.944160        4.467462       14.573365
 O        10.369693        0.876263       14.571123
 O        10.350671        5.385425       14.525251
 O        12.960317        1.778415       10.070366
 O        12.970554        1.733297       14.578920
 O         9.078732        4.491909       16.805199
 O         9.066138        4.533699       12.242219
 O        10.393523        5.453826       10.052330
 O        10.388107        0.827280       10.069583
 O        14.250810        0.865348       12.319423
 O        14.264849        0.838813       16.823145
 O        14.241966        5.396333       16.804745
 O         9.071386        1.749673       16.817215
 O         9.109082        9.061140        3.289646
 O        12.964894       11.790096        1.105249
 O        14.247538       12.717824        3.347944
 O        12.942790       11.853554        5.593733
 O        10.418820        8.138952        5.495931
 O        10.354513       12.736010        5.586489
 O        12.996375        9.051507        1.095765
 O        12.961229        9.116481        5.537737
 O         9.078482       11.790664        7.793075
 O         9.094674       11.803575        3.316304
 O        10.391249       12.726238        1.073758
 O        10.419256        8.136419        1.077364
 O        14.276157        8.175298        3.343564
 O        14.223961        8.163535        7.756743
 O        14.257320       12.753900        7.832466
 O         9.132157        9.044372        7.746394
 O         1.324699        9.085148        3.307101
 O         5.174433       11.782468        1.076941
 O         6.515280       12.723626        3.281805
 O         5.197352       11.822141        5.525451
 O         2.632847        8.150508        5.527333
 O         2.621394       12.749015        5.573389
 O         5.197544        9.050743        1.090400
 O         5.187381        9.085014        5.507781
 O         1.301741       11.862223        7.801060
 O         1.305142       11.830567        3.355780
 O         2.590128       12.703501        1.113584
 O         2.622793        8.134394        1.099474
 O         6.534378        8.157145        3.295081
 O         6.564253        8.015252        7.647019
 O         6.536677       12.738443        7.694467
 O         1.255677        9.120646        7.681962
 O         1.331811        1.771798        3.356555
 O         5.183639        4.487589        1.126648
 O         6.496332        5.397410        3.363688
 O         5.188989        4.478004        5.643934
 O         2.638429        0.875757        5.582768
 O         2.614873        5.419565        5.580630
 O         5.190372        1.747630        1.105052
 O         5.221690        1.766943        5.552266
 O         1.407978        4.555284        7.862132
 O         1.327588        4.511714        3.343360
 O         2.589398        5.397088        1.082289
 O         2.602920        0.844930        1.113857
 O         6.509702        0.848489        3.330872
 O         6.548238        0.909642        7.766439
 O         6.387434        5.361704        7.886606
 O         1.362129        1.786668        7.822617
 O         9.094936        1.763613        3.350766
 O        12.992886        4.520679        1.130996
 O        14.280083        5.442090        3.366872
 O        12.990547        4.495290        5.605370
 O        10.399658        0.863203        5.586226
 O        10.400065        5.391071        5.566365
 O        12.992666        1.776962        1.118523
 O        12.987834        1.757437        5.583115
 O         9.093764        4.520761        7.846214
 O         9.087403        4.494867        3.337602
 O        10.395139        5.399196        1.103692
 O        10.401229        0.868823        1.102938
 O        14.285678        0.850399        3.351368
 O        14.281082        0.877692        7.832283
 O        14.313910        5.410775        7.826807
 O         9.131328        1.780094        7.821626
 O         1.306731        1.749430       12.330881
 O         5.269877        4.733282       10.017335
 O         6.502567        5.360991       12.102090
 O         5.204803        4.488204       14.518865
 O         2.615880        0.829113       14.576107
 O         2.616558        5.439423       14.540565
 O         5.251437        1.711209       10.098052
 O         5.190111        1.774151       14.597652
 O         1.298999        4.503077       16.770969
 O         1.358731        4.505315       12.328782
 O         2.813166        5.425886       10.016334
 O         2.589273        0.879680       10.087171
 O         6.506173        0.918405       12.346967
 O         6.488007        0.838839       16.812431
 O         6.481938        5.396582       16.820694
 O         1.319971        1.759433       16.814531
 O         9.152292        9.056570       12.315349
 O        12.945279       11.807567       10.059169
 O        14.187454       12.729493       12.320541
 O        12.936834       11.811227       14.568387
 O        10.395557        8.143522       14.596896
 O        10.359541       12.733027       14.577003
 O        12.952063        9.047253       10.047124
 O        12.972780        9.073084       14.611943
 O         9.053493       11.813367       16.807497
 O         9.097563       11.798621       12.307879
 O        10.356501       12.689308       10.040047
 O        10.372231        8.167491       10.027351
 O        14.138336        8.124547       12.339060
 O        14.285237        8.134048       16.807615
 O        14.241835       12.701379       16.808432
 O         9.087430        9.066329       16.814425
 O         1.165523        9.071504       12.427904
 O         5.255079       12.193072        9.917285
 O         6.542167       12.738338       12.367084
 O         5.174740       11.801462       14.581483
 O         2.600913        8.159839       14.578922
 O         2.580363       12.701874       14.579618
 O         5.200763        9.047950       14.563840
 O         1.298155       11.785605       16.831060
 O         1.235057       11.816415       12.379109
 O         2.491380       12.722628       10.089995
 O         2.003819        8.026067       10.078259
 O         6.605371        8.033762       12.372158
 O         6.513230        8.151110       16.809231
 O         6.470951       12.711621       16.800711
 O         1.338047        9.051294       16.816681
 H         9.553500        1.453015       11.516154
 H         9.125399        2.742706       12.253226
 H        12.965807        3.553297       10.078690
 H        13.420094        4.795094       10.872794
 H        15.149037        5.063961       12.364097
 H        13.808303        5.034799       13.137204
 H        12.964458        3.504313       14.598075
 H        13.394050        4.775152       15.367736
 H        11.280535        1.188393       14.552322
 H         9.945356        1.207476       13.773265
 H        11.251203        5.046058       14.554548
 H         9.913937        5.065440       15.321450
 H        13.402349        1.451977        9.279738
 H        12.062671        1.428523       10.052178
 H        13.438175        1.399064       15.351876
 H        13.440413        1.410956       13.802443
 H         8.163738        4.790195       16.814116
 H         9.053912        3.529056       16.809120
 H         9.557044        4.880210       11.486751
 H         9.514934        4.850900       13.034118
 H        10.406848        6.419478       10.040624
 H        11.309310        5.156206       10.051006
 H        10.361260       14.465687       10.047607
 H         9.938526        1.133860        9.275385
 H        15.158965        1.185071       12.299148
 H        13.818031        1.203872       11.528678
 H        15.169309        1.168427       16.839159
 H        13.832957        1.176196       17.615496
 H        13.802228        5.106279       17.611530
 H        14.240469        6.359670       16.821184
 H         9.555253        1.432774       17.587427
 H         9.543489        1.433509       16.039373
 H         9.581178        8.729918        4.061918
 H         9.581759        8.729212        2.518604
 H        13.402286       12.123053        0.313858
 H        12.060994       12.122248        1.075516
 H        13.784753       12.379716        2.573786
 H        13.769224       12.401397        4.121965
 H        12.035268       12.176540        5.618013
 H        13.382471       12.187314        6.382720
 H        11.328349        8.456294        5.505413
 H        10.450012        7.177773        5.517268
 H         9.900203       12.400862        4.806881
 H         9.883455       12.389934        6.354845
 H        13.459067        8.756207        0.304054
 H        12.994332       10.014799        1.075019
 H        13.400094        8.800080        6.334686
 H        12.958634       10.078974        5.582472
 H         9.060795       10.828113        7.782111
 H         8.159948       12.089285        7.775013
 H         9.559561       12.109548        2.530776
 H         9.114183       10.840867        3.292057
 H        10.383797       13.688877        1.065629
 H         9.914405       12.434448        0.289252
 H        10.434540        7.173601        1.085736
 H        11.335750        8.432887        1.079824
 H        13.804248        8.530031        4.105358
 H        13.810645        8.487834        2.559775
 H        14.271368        7.202238        7.770540
 H        15.129853        8.484496        7.704535
 H        15.161585       12.419054        7.841053
 H        13.824260       12.412659        8.621885
 H         9.582808        8.726806        6.957518
 H         8.239303        8.690716        7.703850
 H         0.409871        8.782648        3.319134
 H         1.296646       10.047659        3.323308
 H         4.259498       12.081763        1.095627
 H         5.155481       10.819302        1.082109
 H         6.070823       12.379894        2.500067
 H         7.416550       12.383797        3.265898
 H         5.680631       12.146254        6.297252
 H         5.666517       12.148803        4.751869
 H         2.192142        8.485978        4.739144
 H         3.535940        8.489761        5.503723
 H         2.195384       12.427774        6.375404
 H         3.524079       12.409357        5.578864
 H         5.668265        8.730671        0.313026
 H         5.683877        8.727122        1.856961
 H         5.668257        8.797445        4.725678
 H         5.207508       10.049010        5.510663
 H         1.739769       12.134070        8.617396
 H         1.315678       10.901224        7.780136
 H         1.744349       12.160067        4.147705
 H         0.398137       12.153464        3.379808
 H         2.134179       12.414401        1.912018
 H         2.589034       13.666281        1.130730
 H         2.185107        8.479040        1.885663
 H         3.530580        8.457445        1.118989
 H         6.548967        7.196208        3.325660
 H         7.452085        8.452121        3.296109
 H         6.037929        8.424111        6.947789
 H         6.180153        8.297108        8.486035
 H         6.555815       13.697491        7.689497
 H         6.061338       12.501545        8.509899
 H         1.612678        8.753880        8.485795
 H         1.774751        8.772962        6.948214
 H         1.798827        1.477194        4.146265
 H         1.334256        2.734568        3.373587
 H         5.164103        3.524347        1.121053
 H         4.267467        4.783515        1.112818
 H         6.030577        5.080822        4.142102
 H         6.013587        5.069527        2.597262
 H         4.274514        4.780269        5.612515
 H         5.173019        3.513846        5.594885
 H         3.559004        1.159359        5.572724
 H         2.649379       14.513206        5.581209
 H         2.159908        5.118860        4.785766
 H         2.624470        6.383634        5.542701
 H         5.626117        1.418974        0.311338
 H         4.286860        1.413890        1.087919
 H         5.704205        1.451693        6.325092
 H         5.686069        1.431456        4.776557
 H         0.494151        4.861307        7.852103
 H         1.810603        4.876750        7.045573
 H         1.752994        4.829493        2.539214
 H         0.424826        4.847410        3.331083
 H         2.593425        6.360627        1.067709
 H         2.134161        5.108246        0.284766
 H         2.143360        1.183299        1.889915
 H         2.132041        1.178047        0.342783
 H         6.501021       14.486940        3.293897
 H         6.048681        1.154930        2.542510
 H         6.121549        1.159283        8.588344
 H         7.456253        1.228699        7.812626
 H         6.442304        6.328083        7.775506
 H         5.948833        5.019137        7.090412
 H         1.378562        2.747330        7.803696
 H         1.813221        1.483723        7.025984
 H         9.530048        1.436305        4.145352
 H         8.193276        1.424934        3.363042
 H        13.421850        4.862492        1.922945
 H        12.082551        4.834666        1.147233
 H        13.828011        5.134261        4.159143
 H        14.266099        6.405594        3.391042
 H        12.975935        3.531976        5.589390
 H        12.071927        4.784042        5.595300
 H        11.319751        1.148161        5.578761
 H        10.405027       14.501225        5.589690
 H         9.918812        5.092022        6.342668
 H         9.921774        5.063786        4.796502
 H        13.448394        1.471084        1.910161
 H        13.006240        2.739540        1.144345
 H        13.462483        1.425937        4.812928
 H        13.458885        1.436146        6.359467
 H         9.537119        4.869626        8.629222
 H         8.187826        4.826375        7.881742
 H         9.066892        3.531236        3.341003
 H         8.171252        4.791056        3.345667
 H         9.916187        5.073801        1.873336
 H         9.927581        5.071697        0.328292
 H        11.304614        1.200935        1.130214
 H         9.962045        1.190538        1.897186
 H        15.203691        1.141350        3.352533
 H        14.294182       14.489040        3.339899
 H        14.300690       14.515687        7.841151
 H        15.195621        1.174539        7.835471
 H        13.840046        5.094696        8.602874
 H        13.838702        5.071639        7.060182
 H         9.146261        2.741919        7.809237
 H         9.586900        1.481062        7.026299
 H         1.766103        1.461798       11.533959
 H         1.330678        2.710496       12.327452
 H         5.784377        5.038718       10.846878
 H         5.728220        5.030735        9.147472
 H         7.420094        5.046651       12.138994
 H         6.552860        6.327701       12.207481
 H         5.204078        3.522846       14.529835
 H         5.649699        4.754868       13.715673
 H         2.595569       14.466923       14.563790
 H         2.155177        1.123968       13.784585
 H         2.639629        6.404182       14.559696
 H         3.529636        5.136968       14.548595
 H         5.272498        2.659289       10.124429
 H         5.697400        1.411080       10.903782
 H         5.627254        1.437469       15.388429
 H         4.291634        1.425903       14.603732
 H         0.390187        4.822569       16.755424
 H         1.731912        4.843406       15.982250
 H         1.847481        4.811265       11.567038
 H         1.820703        4.849901       13.104162
 H         2.320870        5.106426        9.243935
 H         4.324091        5.058223       10.029667
 H         2.180839        1.201418        9.275850
 H         3.511038        1.144203       10.060796
 H         7.417312        1.229627       12.368138
 H         6.075456        1.228370       13.150151
 H         7.404385        1.135626       16.817904
 H         6.508145       14.476887       16.807566
 H         6.003984        5.069024       17.590015
 H         6.017981        5.078687       16.042187
 H         1.330010        2.721395       16.776031
 H         1.774644        1.445937       16.025642
 H         9.607172        8.772370       13.113509
 H         9.126867       10.019627       12.333299
 H        12.930394       10.845380       10.057279
 H        12.025172       12.095500       10.044480
 H        14.198053       13.691880       12.293938
 H        13.746560       12.430438       11.517660
 H        12.030291       12.137866       14.559029
 H        13.356551       12.145262       13.767945
 H        10.407203        7.181900       14.573112
 H        11.312165        8.437551       14.614203
 H         9.893016       12.430532       15.363216
 H        10.347937       13.695008       14.597198
 H        12.039205        8.737874       10.013145
 H        13.380950        8.733988        9.245376
 H        12.964902       10.036180       14.579659
 H        13.377335        8.768821       13.792902
 H         9.045740       10.850503       16.808596
 H         8.133364       12.098906       16.805059
 H         8.188161       12.120130       12.333975
 H         9.526544       12.138429       13.098591
 H         9.881289       12.355998        9.270159
 H         9.891959       12.362179       10.818624
 H         9.897149        8.490263        9.253459
 H         9.909973        8.496609       10.806497
 H        14.147676        7.162708       12.317669
 H        13.718083        8.422546       11.524464
 H        13.848477        8.478983       16.020557
 H        15.191491        8.459365       16.790247
 H        13.783974       12.409066       16.012745
 H        14.238356       13.664161       16.793333
 H         9.568083        8.737006       17.581280
 H         9.554434        8.737057       16.038649
 H         1.653437        8.740655       13.189699
 H         0.264135        8.738715       12.487531
 H         4.313789       12.304820       10.025777
 H         5.663377       12.303009       10.773430
 H         6.056679       12.424554       13.134650
 H         6.518933       13.696657       12.394938
 H         4.256136       12.087752       14.565776
 H         5.166751       10.839447       14.557039
 H         3.506503        8.489377       14.575346
 H         2.187583        8.487932       15.386115
 H         2.095153       12.377401       13.812497
 H         2.118279       12.373318       15.357700
 H         5.675583        8.715795       13.796643
 H         5.675946        8.726870       15.337072
 H         0.392758       12.112579       16.847164
 H         1.731628       12.124585       17.622177
 H         1.202306       10.855604       12.390821
 H         0.321934       12.121658       12.362118
 H         2.498163       13.681890       10.123831
 H         2.062328       12.416232       10.893147
 H         2.663617        6.370169       10.048917
 H         1.731388        8.422878       10.920270
 H         6.207366        8.289512       11.531138
 H         7.500975        8.397049       12.340938
 H         6.532691        7.189551       16.814987
 H         7.429450        8.450203       16.812407
 H         6.000905       12.383347       16.025173
 H         5.997689       12.377497       17.570518
 H         1.791501        8.749955       17.612036
 H         1.334734       10.014522       16.846437
381
 generated by VMD
 O         9.107356        1.782315       12.304235
 O        12.974630        4.516675       10.066347
 O        14.240348        5.373458       12.344668
 O        12.944160        4.467462       14.573365
 O        10.369693        0.876263       14.571123
 O        10.350671        5.385425       14.525251
 O        12.960317        1.778415       10.070366
 O        12.970554        1.733297       14.578920
 O         9.078732        4.491909       16.805199
 O         9.066138        4.533699       12.242219
 O        10.393523        5.453826       10.052330
 O        10.388107        0.827280       10.069583
 O        14.250810        0.865348       12.319423
 O        14.264849        0.838813       16.823145
 O        14.241966        5.396333       16.804745
 O         9.071386        1.749673       16.817215
 O         9.109082        9.061140        3.289646
 O        12.964894       11.790096        1.105249
 O        14.247538       12.717824        3.347944
 O        12.942790       11.853554        5.593733
 O        10.418820        8.138952        5.495931
 O        10.354513       12.736010        5.586489
 O        12.996375        9.051507        1.095765
 O        12.961229        9.116481        5.537737
 O         9.078482       11.790664        7.793075
 O         9.094674       11.803575        3.316304
 O        10.391249       12.726238        1.073758
 O        10.419256        8.136419        1.077364
 O        14.276157        8.175298        3.343564
 O        14.223961        8.163535        7.756743
 O        14.257320       12.753900        7.832466
 O         9.132157        9.044372        7.746394
 O         1.324699        9.085148        3.307101
 O         5.174433       11.782468        1.076941
 O         6.515280       12.723626        3.281805
 O         5.197352       11.822141        5.525451
 O         2.632847        8.150508        5.527333
 O         2.621394       12.749015        5.573389
 O         5.197544        9.050743        1.090400
 O         5.187381        9.085014        5.507781
 O         1.301741       11.862223        7.801060
 O         1.305142       11.830567        3.355780
 O         2.590128       12.703501        1.113584
 O         2.622793        8.134394        1.099474
 O         6.534378        8.157145        3.295081
 O         6.564253        8.015252        7.647019
 O         6.536677       12.738443        7.694467
 O         1.255677        9.120646        7.681962
 O         1.331811        1.771798        3.356555
 O         5.183639        4.487589        1.126648
 O         6.496332        5.397410        3.363688
 O         5.188989        4.478004        5.643934
 O         2.638429        0.875757        5.582768
 O         2.614873        5.419565        5.580630
 O         5.190372        1.747630        1.105052
 O         5.221690        1.766943        5.552266
 O         1.407978        4.555284        7.862132
 O         1.327588        4.511714        3.343360
 O         2.589398        5.397088        1.082289
 O         2.602920        0.844930        1.113857
 O         6.509702        0.848489        3.330872
 O         6.548238        0.909642        7.766439
 O         6.387434        5.361704        7.886606
 O         1.362129        1.786668        7.822617
 O         9.094936        1.763613        3.350766
 O        12.992886        4.520679        1.130996
 O        14.280083        5.442090        3.366872
 O        12.990547        4.495290        5.605370
 O        10.399658        0.863203        5.586226
 O        10.400065        5.391071        5.566365
 O        12.992666        1.776962        1.118523
 O        12.987834        1.757437        5.583115
 O         9.093764        4.520761        7.846214
 O         9.087403        4.494867        3.337602
 O        10.395139        5.399196        1.103692
 O        10.401229        0.868823        1.102938
 O        14.285678        0.850399        3.351368
 O        14.281082        0.877692        7.832283
 O        14.313910        5.410775        7.826807
 O         9.131328        1.780094        7.821626
 O         1.306731        1.749430       12.330881
 O         5.269877        4.733282       10.017335
 O         6.502567        5.360991       12.102090
 O         5.204803        4.488204       14.518865
 O         2.615880        0.829113       14.576107
 O         2.616558        5.439423       14.540565
 O         5.251437        1.711209       10.098052
 O         5.190111        1.774151       14.597652
 O         1.298999        4.503077       16.770969
 O         1.358731        4.505315       12.328782
 O         2.813166        5.425886       10.016334
 O         2.589273        0.879680       10.087171
 O         6.506173        0.918405       12.346967
 O         6.488007        0.838839       16.812431
 O         6.481938        5.396582       16.820694
 O         1.319971        1.759433       16.814531
 O         9.152292        9.056570       12.315349
 O        12.945279       11.807567       10.059169
 O        14.187454       12.729493       12.320541
 O        12.936834       11.811227       14.568387
 O        10.395557        8.143522       14.596896
 O        10.359541       12.733027       14.577003
 O        12.952063        9.047253       10.047124
 O        12.972780        9.073084       14.611943
 O         9.053493       11.813367       16.807497
 O         9.097563       11.798621       12.307879
 O        10.356501       12.689308       10.040047
 O        10.372231        8.167491       10.027351
 O        14.138336        8.124547       12.339060
 O        14.285237        8.134048       16.807615
 O        14.241835       12.701379       16.808432
 O         9.087430        9.066329       16.814425
 O         1.165523        9.071504       12.427904
 O         5.255079       12.193072        9.917285
 O         6.542167       12.738338       12.367084
 O         5.174740       11.801462       14.581483
 O         2.600913        8.159839       14.578922
 O         2.580363       12.701874       14.579618
 O         5.200763        9.047950       14.563840
 O         1.298155       11.785605       16.831060
 O         1.235057       11.816415       12.379109
 O         2.491380       12.722628       10.089995
 O         2.003819        8.026067       10.078259
 O         6.605371        8.033762       12.372158
 O         6.513230        8.151110       16.809231
 O         6.470951       12.711621       16.800711
 O         1.338047        9.051294       16.816681
 H         9.553500        1.453015       11.516154
 H         9.125399        2.742706       12.253226
 H        12.965807        3.553297       10.078690
 H        13.420094        4.795094       10.872794
 H        15.149037        5.063961       12.364097
 H        13.808303        5.034799       13.137204
 H        12.964458        3.504313       14.598075
 H        13.394050        4.775152       15.367736
 H        11.280535        1.188393       14.552322
 H         9.945356        1.207476       13.773265
 H        11.251203        5.046058       14.554548
 H         9.913937        5.065440       15.321450
 H        13.402349        1.451977        9.279738
 H        12.062671        1.428523       10.052178
 H        13.438175        1.399064       15.351876
 H        13.440413        1.410956       13.802443
 H         8.163738        4.790195       16.814116
 H         9.053912        3.529056       16.809120
 H         9.557044        4.880210       11.486751
 H         9.514934        4.850900       13.034118
 H        10.406848        6.419478       10.040624
 H        11.309310        5.156206       10.051006
 H        10.361260       14.465687       10.047607
 H         9.938526        1.133860        9.275385
 H        15.158965        1.185071       12.299148
 H        13.818031        1.203872       11.528678
 H        15.169309        1.168427       16.839159
 H        13.832957        1.176196       17.615496
 H        13.802228        5.106279       17.611530
 H        14.240469        6.359670       16.821184
 H         9.555253        1.432774       17.587427
 H         9.543489        1.433509       16.039373
 H         9.581178        8.729918        4.061918
 H         9.581759        8.729212        2.518604
 H        13.402286       12.123053        0.313858
 H        12.060994       12.122248        1.075516
 H        13.784753       12.379716        2.573786
 H        13.769224       12.401397        4.121965
 H        12.035268       12.176540        5.618013
 H        13.382471       12.187314        6.382720
 H        11.328349        8.456294        5.505413
 H        10.450012        7.177773        5.517268
 H         9.900203       12.400862        4.806881
 H         9.883455       12.389934        6.354845
 H        13.459067        8.756207        0.304054
 H        12.994332       10.014799        1.075019
 H        13.400094        8.800080        6.334686
 H        12.958634       10.078974        5.582472
 H         9.060795       10.828113        7.782111
 H         8.159948       12.089285        7.775013
 H         9.559561       12.109548        2.530776
 H         9.114183       10.840867        3.292057
 H        10.383797       13.688877        1.065629
 H         9.914405       12.434448        0.289252
 H        10.434540        7.173601        1.085736
 H        11.335750        8.432887        1.079824
 H        13.804248        8.530031        4.105358
 H        13.810645        8.487834        2.559775
 H        14.271368        7.202238        7.770540
 H        15.129853        8.484496        7.704535
 H        15.161585       12.419054        7.841053
 H        13.824260       12.412659        8.621885
 H         9.582808        8.726806        6.957518
 H         8.239303        8.690716        7.703850
 H         0.409871        8.782648        3.319134
 H         1.296646       10.047659        3.323308
 H         4.259498       12.081763        1.095627
 H         5.155481       10.819302        1.082109
 H         6.070823       12.379894        2.500067
 H         7.416550       12.383797        3.265898
 H         5.680631       12.146254        6.297252
 H         5.666517       12.148803        4.751869
 H         2.192142        8.485978        4.739144
 H         3.535940        8.489761        5.503723
 H         2.195384       12.427774        6.375404
 H         3.524079       12.409357        5.578864
 H         5.668265        8.730671        0.313026
 H         5.683877        8.727122        1.856961
 H         5.668257        8.797445        4.725678
 H         5.207508       10.049010        5.510663
 H         1.739769       12.134070        8.617396
 H         1.315678       10.901224        7.780136
 H         1.744349       12.160067        4.147705
 H         0.398137       12.153464        3.379808
 H         2.134179       12.414401        1.912018
 H         2.589034       13.666281        1.130730
 H         2.185107        8.479040        1.885663
 H         3.530580        8.457445        1.118989
 H         6.548967        7.196208        3.325660
 H         7.452085        8.452121        3.296109
 H         6.037929        8.424111        6.947789
 H         6.180153        8.297108        8.486035
 H         6.555815       13.697491        7.689497
 H         6.061338       12.501545        8.509899
 H         1.612678        8.753880        8.485795
 H         1.774751        8.772962        6.948214
 H         1.798827        1.477194        4.146265
 H         1.334256        2.734568        3.373587
 H         5.164103        3.524347        1.121053
 H         4.267467        4.783515        1.112818
 H         6.030577        5.080822        4.142102
 H         6.013587        5.069527        2.597262
 H         4.274514        4.780269        5.612515
 H         5.173019        3.513846        5.594885
 H         3.559004        1.159359        5.572724
 H         2.649379       14.513206        5.581209
 H         2.159908        5.118860        4.785766
 H         2.624470        6.383634        5.542701
 H         5.626117        1.418974        0.311338
 H         4.286860        1.413890        1.087919
 H         5.704205        1.451693        6.325092
 H         5.686069        1.431456        4.776557
 H         0.494151        4.861307        7.852103
 H         1.810603        4.876750        7.045573
 H         1.752994        4.829493        2.539214
 H         0.424826        4.847410        3.331083
 H         2.593425        6.360627        1.067709
 H         2.134161        5.108246        0.284766
 H         2.143360        1.183299        1.889915
 H         2.132041        1.178047        0.342783
 H         6.501021       14.486940        3.293897
 H         6.048681        1.154930        2.542510
 H         6.121549        1.159283        8.588344
 H         7.456253        1.228699        7.812626
 H         6.442304        6.328083        7.775506
 H         5.948833        5.019137        7.090412
 H         1.378562        2.747330        7.803696
 H         1.813221        1.483723        7.025984
 H         9.530048        1.436305        4.145352
 H         8.193276        1.424934        3.363042
 H        13.421850        4.862492        1.922945
 H        12.082551        4.834666        1.147233
 H        13.828011        5.134261        4.159143
 H        14.266099        6.405594        3.391042
 H        12.975935        3.531976        5.589390
 H        12.071927        4.784042        5.595300
 H        11.319751        1.148161        5.578761
 H        10.405027       14.501225        5.589690
 H         9.918812        5.092022        6.342668
 H         9.921774        5.063786        4.796502
 H        13.448394        1.471084        1.910161
 H        13.006240        2.739540        1.144345
 H        13.462483        1.425937        4.812928
 H        13.458885        1.436146        6.359467
 H         9.537119        4.869626        8.629222
 H         8.187826        4.826375        7.881742
 H         9.066892        3.531236        3.341003
 H         8.171252        4.791056        3.345667
 H         9.916187        5.073801        1.873336
 H         9.927581        5.071697        0.328292
 H        11.304614        1.200935        1.130214
 H         9.962045        1.190538        1.897186
 H        15.203691        1.141350        3.352533
 H        14.294182       14.489040        3.339899
 H        14.300690       14.515687        7.841151
 H        15.195621        1.174539        7.835471
 H        13.840046        5.094696        8.602874
 H        13.838702        5.071639        7.060182
 H         9.146261        2.741919        7.809237
 H         9.586900        1.481062        7.026299
 H         1.766103        1.461798       11.533959
 H         1.330678        2.710496       12.327452
 H         5.784377        5.038718       10.846878
 H         5.728220        5.030735        9.147472
 H         7.420094        5.046651       12.138994
 H         6.552860        6.327701       12.207481
 H         5.204078        3.522846       14.529835
 H         5.649699        4.754868       13.715673
 H         2.595569       14.466923       14.563790
 H         2.155177        1.123968       13.784585
 H         2.639629        6.404182       14.559696
 H         3.529636        5.136968       14.548595
 H         5.272498        2.659289       10.124429
 H         5.697400        1.411080       10.903782
 H         5.627254        1.437469       15.388429
 H         4.291634        1.425903       14.603732
 H         0.390187        4.822569       16.755424
 H         1.731912        4.843406       15.982250
 H         1.847481        4.811265       11.567038
 H         1.820703        4.849901       13.104162
 H         2.320870        5.106426        9.243935
 H         4.324091        5.058223       10.029667
 H         2.180839        1.201418        9.275850
 H         3.511038        1.144203       10.060796
 H         7.417312        1.229627       12.368138
 H         6.075456        1.228370       13.150151
 H         7.404385        1.135626       16.817904
 H         6.508145       14.476887       16.807566
 H         6.003984        5.069024       17.590015
 H         6.017981        5.078687       16.042187
 H         1.330010        2.721395       16.776031
 H         1.774644        1.445937       16.025642
 H         9.607172        8.772370       13.113509
 H         9.126867       10.019627       12.333299
 H        12.930394       10.845380       10.057279
 H        12.025172       12.095500       10.044480
 H        14.198053       13.691880       12.293938
 H        13.746560       12.430438       11.517660
 H        12.030291       12.137866       14.559029
 H        13.356551       12.145262       13.767945
 H        10.407203        7.181900       14.573112
 H        11.312165        8.437551       14.614203
 H         9.893016       12.430532       15.363216
 H        10.347937       13.695008       14.597198
 H        12.039205        8.737874       10.013145
 H        13.380950        8.733988        9.245376
 H        12.964902       10.036180       14.579659
 H        13.377335        8.768821       13.792902
 H         9.045740       10.850503       16.808596
 H         8.133364       12.098906       16.805059
 H         8.188161       12.120130       12.333975
 H         9.526544       12.138429       13.098591
 H         9.881289       12.355998        9.270159
 H         9.891959       12.362179       10.818624
 H         9.897149        8.490263        9.253459
 H         9.909973        8.496609       10.806497
 H        14.147676        7.162708       12.317669
 H        13.718083        8.422546       11.524464
 H        13.848477        8.478983       16.020557
 H        15.191491        8.459365       16.790247
 H        13.783974       12.409066       16.012745
 H        14.238356       13.664161       16.793333
 H         9.568083        8.737006       17.581280
 H         9.554434        8.737057       16.038649
 H         1.653437        8.740655       13.189699
 H         0.264135        8.738715       12.487531
 H         4.313789       12.304820       10.025777
 H         5.663377       12.303009       10.773430
 H         6.056679       12.424554       13.134650
 H         6.518933       13.696657       12.394938
 H         4.256136       12.087752       14.565776
 H         5.166751       10.839447       14.557039
 H         3.506503        8.489377       14.575346
 H         2.187583        8.487932       15.386115
 H         2.095153       12.377401       13.812497
 H         2.118279       12.373318       15.357700
 H         5.675583        8.715795       13.796643
 H         5.675946        8.726870       15.337072
 H         0.392758       12.112579       16.847164
 H         1.731628       12.124585       17.622177
 H         1.202306       10.855604       12.390821
 H         0.321934       12.121658       12.362118
 H         2.498163       13.681890       10.123831
 H         2.062328       12.416232       10.893147
 H         2.663617        6.370169       10.048917
 H         1.731388        8.422878       10.920270
 H         6.207366        8.289512       11.531138
 H         7.500975        8.397049       12.340938
 H         6.532691        7.189551       16.814987
 H         7.429450        8.450203       16.812407
 H         6.000905       12.383347       16.025173
 H         5.997689       12.377497       17.570518
 H         1.791501        8.749955       17.612036
 H         1.334734       10.014522       16.846437
