381
 generated by VMD
 O         9.078794        1.738045       12.315774
 O        12.982629        4.490466       10.061377
 O        14.285831        5.414086       12.269665
 O        12.950556        4.479179       14.481345
 O        10.355810        0.846768       14.572691
 O        10.386277        5.406775       14.536852
 O        12.957465        1.748848       10.081717
 O        12.950029        1.748483       14.530392
 O         9.106408        4.485127       16.806889
 O         9.107957        4.474188       12.304075
 O        10.395825        5.393352       10.075317
 O        10.377604        0.843245       10.077892
 O        14.263642        0.839630       12.306493
 O        14.258232        0.913335       16.800705
 O        14.165033        5.411254       16.741123
 O         9.088463        1.746378       16.826412
 O         9.093512        9.056635        3.381433
 O        12.988055       11.813863        1.092472
 O        14.259732       12.728972        3.354242
 O        12.981687       11.781495        5.592634
 O        10.357609        8.132794        5.605657
 O        10.400463       12.704425        5.588446
 O        12.913462        9.055765        1.110644
 O        12.932281        9.048422        5.593600
 O         9.100304       11.796096        7.817481
 O         9.116369       11.796422        3.336510
 O        10.414908       12.705150        1.096509
 O        10.312452        8.157514        1.099505
 O        14.189250        8.124352        3.362986
 O        14.251847        8.168307        7.811766
 O        14.277532       12.678649        7.823888
 O         9.084625        9.060769        7.845849
 O         1.233222        9.137121        3.435346
 O         5.233762       11.885384        1.060355
 O         6.539113       12.699373        3.369603
 O         5.237589       11.766173        5.591577
 O         2.643461        8.142000        5.612602
 O         2.668107       12.705737        5.594441
 O         5.723721        9.135978        1.175373
 O         5.226902        9.033148        5.579883
 O         1.343095       11.806911        7.816016
 O         1.332365       11.880486        3.364786
 O         2.618540       12.751481        1.095802
 O         6.542253        8.072516        3.395475
 O         6.499131        8.147201        7.814383
 O         6.510208       12.696995        7.832083
 O         1.295940        9.071176        7.813516
 O         1.288909        1.691703        3.381327
 O         5.152872        4.261808        1.372494
 O         6.412439        5.121174        3.300790
 O         5.222122        4.519307        5.605849
 O         2.604720        0.814751        5.616105
 O         2.633605        5.369072        5.660723
 O         5.177999        1.793799        1.082637
 O         5.208118        1.761420        5.620135
 O         1.284576        4.481024        7.852253
 O         1.265302        4.417087        3.457129
 O         2.708236        4.892254        1.281924
 O         2.631909        0.964711        1.090800
 O         6.508040        0.868985        3.401797
 O         6.500428        0.823341        7.826199
 O         6.514266        5.397675        7.819785
 O         1.253078        1.741433        7.827411
 O         9.100394        1.770313        3.367515
 O        12.944811        4.532337        1.089033
 O        14.253830        5.383269        3.346178
 O        12.938011        4.505880        5.577072
 O        10.368018        0.848290        5.621690
 O        10.351376        5.410381        5.565183
 O        12.977187        1.796052        1.114629
 O        12.946016        1.764128        5.611881
 O         9.097372        4.510742        7.837031
 O         9.023731        4.524551        3.354320
 O        10.339750        5.433658        1.135938
 O        10.411809        0.857911        1.114929
 O        14.229244        0.868503        3.369998
 O        14.216114        0.806161        7.834328
 O        14.249491        5.427481        7.810420
 O         9.070075        1.766039        7.857399
 O         1.307146        1.779885       12.307618
 O         5.220852        4.482081       10.044214
 O         6.532735        5.422184       12.257581
 O         5.234376        4.542999       14.490124
 O         2.620007        0.888349       14.548787
 O         2.643189        5.484098       14.455709
 O         5.159937        1.747620       10.039488
 O         5.218831        1.798804       14.559635
 O         1.291484        4.621689       16.643566
 O         1.340339        4.520355       12.265340
 O         2.651469        5.417884       10.031274
 O         2.577255        0.857306       10.058211
 O         6.473645        0.885047       12.278577
 O         6.491173        0.898939       16.875685
 O         6.518180        5.476039       16.760988
 O         1.322474        1.846646       16.772936
 O         9.062213        9.073998       12.284748
 O        12.982268       11.779317       10.059677
 O        14.258725       12.715181       12.307634
 O        12.972767       11.815428       14.547906
 O        10.375676        8.159096       14.496789
 O        10.393244       12.719191       14.545534
 O        12.960005        9.046154       10.060926
 O        12.952077        9.091207       14.497414
 O         9.097698       11.835570       16.798330
 O         9.110054       11.817391       12.294274
 O        10.410973       12.711634       10.046633
 O        10.375127        8.136036       10.074580
 O        14.280107        8.156642       12.289194
 O        14.117469        8.164791       16.743687
 O        14.273407       12.749630       16.791910
 O         9.119713        9.092440       16.749569
 O         1.326788        9.093667       12.245633
 O         5.210703       11.798758       10.063445
 O         6.538509       12.749225       12.272218
 O         5.240429       11.868795       14.534314
 O         2.629200        8.203933       14.468938
 O         2.635602       12.759734       14.529940
 O         5.189843        9.057707       10.028139
 O         5.217729        9.122021       14.512803
 O         1.335292       11.868629       16.749193
 O         1.329334       11.844457       12.297972
 O         2.629993       12.714123       10.064443
 O         2.606589        8.149862       10.015958
 O         6.479990        8.180418       12.260765
 O         6.584530        8.113842       16.661285
 O         6.519532       12.785393       16.793859
 O         1.177557        9.123373       16.622284
 H         8.167176        1.430746       12.276701
 H         9.520559        1.405861       11.526479
 H        13.435354        4.827231        9.281097
 H        13.460399        4.832565       10.825669
 H        15.203809        5.121948       12.271059
 H        14.303123        6.377478       12.285748
 H        13.420866        4.783431       13.698001
 H        12.962017        3.515877       14.464051
 H        10.358148       14.485082       14.544888
 H         9.897478        1.141681       13.778435
 H         9.971603        5.080037       15.340142
 H        11.292700        5.078773       14.536110
 H        12.979414        2.711926       10.088128
 H        13.423450        1.454395       10.871949
 H        13.385044        1.400529       13.744394
 H        12.044809        1.420226       14.520425
 H         9.081418        3.521984       16.807238
 H         8.196963        4.791205       16.782902
 H         9.109894        3.511189       12.332241
 H         9.555308        4.777754       13.101501
 H         9.963069        5.050200       10.864808
 H        11.302973        5.069095       10.092886
 H        11.290901        1.150638       10.083755
 H        10.411674       14.482296       10.062242
 H        14.288211       14.478057       12.299540
 H        15.176747        1.144987       12.312971
 H        13.817307        1.219775       16.001308
 H        15.157412        1.252710       16.768169
 H        15.084301        5.139661       16.693697
 H        13.742736        5.074738       15.943251
 H         9.544687        1.414514       16.044245
 H         9.574383        1.423317       17.593252
 H         9.058604       10.018826        3.363893
 H         8.186084        8.734776        3.398136
 H        13.466889       12.136356        0.321997
 H        13.460784       12.131969        1.868373
 H        14.222811       13.689797        3.383370
 H        13.805672       12.408385        4.140480
 H        12.946332       10.818400        5.580635
 H        12.069522       12.090043        5.594804
 H         9.895434        8.468282        6.381415
 H         9.899164        8.482203        4.832494
 H        10.383861       13.666103        5.619176
 H         9.933350       12.396657        6.372924
 H        11.991958        8.780186        1.110462
 H        12.920206       10.017595        1.105546
 H        13.358310        8.714657        4.794735
 H        12.028471        8.716194        5.583869
 H         9.076996       10.832911        7.828146
 H         8.184004       12.092438        7.828343
 H         9.591413       12.113138        2.560670
 H         9.589800       12.123738        4.108494
 H        10.438194       13.666629        1.106405
 H        11.332630       12.407601        1.094294
 H         9.862126        8.501483        0.321167
 H         9.847922        8.492741        1.873672
 H        15.086547        8.471688        3.364875
 H        13.773815        8.452859        2.557817
 H        13.780296        8.485500        8.589331
 H        13.773407        8.494615        7.040926
 H        15.189876       12.371348        7.795403
 H        13.842455       12.345131        7.030924
 H         9.519759        8.725826        8.637641
 H         8.180637        8.729180        7.862614
 H         1.767067        8.761295        4.143795
 H         1.616024        8.830209        2.610371
 H         4.311700       12.155504        1.098112
 H         5.648269       12.181877        1.874097
 H         7.453611       12.395738        3.347924
 H         6.568269       13.657826        3.396101
 H         5.700636       12.067986        4.802799
 H         5.243858       10.802779        5.563787
 H         2.167525        8.453799        6.389773
 H         2.622923        7.182287        5.644648
 H         3.564828       12.354889        5.561463
 H         2.215251       12.398837        4.799536
 H         5.937672        8.810263        0.303771
 H         5.465475       10.052241        1.091293
 H         5.653131        8.688408        4.787189
 H         4.315536        8.720013        5.564376
 H         1.826682       12.128906        7.047702
 H         1.805957       12.133494        8.594806
 H         0.415218       12.174328        3.363191
 H         1.301495       10.917748        3.371504
 H         2.602090       13.708826        1.114752
 H         2.158303       12.448284        1.886283
 H         6.478973        7.126094        3.323797
 H         6.197294        8.443556        2.560229
 H         6.050773        8.442758        7.012777
 H         6.493248        7.185428        7.797420
 H         6.035791       12.371635        8.605367
 H         6.048328       12.356297        7.057915
 H         1.288591       10.034397        7.808989
 H         0.376608        8.782640        7.805598
 H         1.729619        1.350652        4.167621
 H         0.381520        1.364570        3.398478
 H         5.195472        3.249083        1.250085
 H         5.679984        4.596444        2.196992
 H         7.358671        4.901472        3.337532
 H         6.015405        4.907599        4.162941
 H         4.311934        4.839537        5.647024
 H         5.672655        4.850617        6.394075
 H         2.657483       14.452767        5.616485
 H         3.510021        1.137468        5.623821
 H         2.159373        5.051304        6.438474
 H         2.138907        5.047050        4.902417
 H         4.265313        1.458597        1.058174
 H         5.644691        1.454763        0.298082
 H         5.216070        2.721880        5.663994
 H         5.668014        1.443424        6.406922
 H         1.246332        3.518551        7.848960
 H         0.374431        4.797598        7.834931
 H         0.363355        4.760044        3.411907
 H         1.205997        3.454607        3.482097
 H         2.159347        4.777715        2.082220
 H         4.200961        4.540865        1.388887
 H         2.142485        1.280473        0.322904
 H         2.136234        1.227232        1.874713
 H         6.029636        1.189686        4.176438
 H         6.018141        1.151394        2.631397
 H         6.529375       14.461617        7.823566
 H         7.412807        1.132199        7.845657
 H         7.424541        5.081820        7.848489
 H         6.076876        5.063630        8.611403
 H         1.702000        1.404384        7.045630
 H         0.353474        1.396807        7.805944
 H         9.072684        2.731596        3.363415
 H         8.187033        1.468624        3.373906
 H        12.042373        4.866157        1.090553
 H        13.361107        4.858583        0.283438
 H        13.807497        5.103911        2.539686
 H        14.249770        6.347947        3.333847
 H        13.400375        4.790293        4.780815
 H        12.953896        3.543016        5.579903
 H         9.896365        1.182923        6.391903
 H         9.906325        1.179764        4.845506
 H        11.267351        5.110202        5.560200
 H        10.374533        6.374815        5.580908
 H        12.975254        2.759289        1.084064
 H        13.429745        1.497530        0.318010
 H        13.383249        1.418923        6.398307
 H        12.041447        1.434233        5.635136
 H         9.560749        4.837114        7.058383
 H         9.573408        4.842392        8.606822
 H         9.498146        4.853020        4.129269
 H         9.494716        4.860127        2.580976
 H        10.322644        6.398136        1.102193
 H         9.907213        5.121960        0.335021
 H        11.313768        1.197543        1.134010
 H         9.977645        1.178254        1.910580
 H        13.755532        1.200007        4.140682
 H        13.776233        1.207182        2.590369
 H        14.217776       14.444560        7.854910
 H        13.771017        1.107024        8.633707
 H        14.240238        6.391007        7.792682
 H        13.785087        5.130934        7.020811
 H         9.539175        1.464329        8.643517
 H         9.089075        2.728670        7.874356
 H         1.775508        1.487484       13.096445
 H         1.323549        2.743086       12.315965
 H         4.311792        4.802769       10.037789
 H         5.173773        3.519885       10.042833
 H         6.092446        5.076803       11.473499
 H         7.434911        5.085606       12.243768
 H         5.696808        4.891345       15.255751
 H         5.709909        4.855951       13.711199
 H         3.535733        1.182831       14.549691
 H         2.640460       14.525895       14.542445
 H         2.666206        6.449580       14.461818
 H         3.556591        5.182266       14.470510
 H         5.606093        1.404705        9.258346
 H         4.254130        1.419205       10.016562
 H         5.237031        2.761810       14.559092
 H         5.674175        1.510269       15.354468
 H         1.710497        5.015038       17.397312
 H         1.767852        4.952303       15.870505
 H         1.810159        4.838276       11.486850
 H         1.811985        4.872073       13.028529
 H         2.625416        6.381311       10.007867
 H         2.165363        5.108052        9.259946
 H         2.121002        1.191241       10.838078
 H         2.087794        1.174193        9.291737
 H         5.988652        1.209972       11.512315
 H         6.017597        1.209205       13.060808
 H         6.508783       14.534235       16.846003
 H         7.413444        1.182012       16.861879
 H         6.538667        6.450059       16.730900
 H         6.029887        5.244949       17.538340
 H         1.780501        1.516388       15.991714
 H         1.324928        2.805434       16.707230
 H         8.141200        8.791323       12.273759
 H         9.058980       10.037187       12.288074
 H        13.450338       12.069924        9.269378
 H        12.986675       10.815888       10.045262
 H        13.797235       12.373158       11.534920
 H        13.791413       12.385858       13.083511
 H        12.981300       10.850998       14.565010
 H        13.430777       12.115984       15.339627
 H        10.367762        7.197234       14.490129
 H         9.898505        8.451358       13.712779
 H         9.961172       12.385798       13.751961
 H        11.299130       12.390344       14.529680
 H        12.056894        8.713251       10.090662
 H        13.406487        8.717717       10.849202
 H        13.350442        8.750929       15.309073
 H        12.046221        8.765418       14.490027
 H         9.568450       12.163022       16.024973
 H         9.578906       12.148730       17.571604
 H         9.550617       12.138905       11.500630
 H         8.211665       12.164669       12.270175
 H         9.974176       12.378971        9.255455
 H        11.313079       12.372865       10.029990
 H        10.369383        7.173463       10.101048
 H         9.911527        8.442513       10.861560
 H        15.178999        8.502812       12.296212
 H        13.844108        8.494823       13.079452
 H        13.715504        8.459727       17.567472
 H        14.138206        7.203871       16.774662
 H        15.193540       12.463043       16.779871
 H        14.285948       13.711045       16.792009
 H         9.125667       10.055432       16.745352
 H         9.592690        8.801605       15.963096
 H         1.796067        8.794276       13.033182
 H         1.338268       10.055755       12.274803
 H         4.295582       12.100280       10.067983
 H         5.185030       10.835802       10.056821
 H         6.502107       13.710896       12.245517
 H         6.065359       12.430112       11.496334
 H         5.712286       12.197224       13.762663
 H         5.707168       12.194406       15.310750
 H         2.152367        8.517160       15.245543
 H         3.525457        8.551594       14.528230
 H         2.204499       12.426097       15.326067
 H         3.539572       12.428981       14.545247
 H         5.630198        8.730852        9.235733
 H         4.284582        8.728889       10.000548
 H         5.657677        8.824033       13.710502
 H         5.239930       10.084388       14.506065
 H         1.785657       12.118156       17.561783
 H         1.289975       10.906025       16.740053
 H         1.766717       12.171422       13.091546
 H         0.419561       12.157986       12.328151
 H         2.606312       13.676353       10.079062
 H         2.163936       12.419538       10.855338
 H         2.146313        8.487567       10.792544
 H         2.128674        8.484386        9.248327
 H         6.487288        7.218572       12.246846
 H         6.019265        8.464809       11.463176
 H         7.475762        8.480877       16.646502
 H         6.108027        8.485490       15.911316
 H         7.417748       12.438394       16.817810
 H         6.070597       12.445918       17.579016
 H         0.272341        8.791526       16.659904
 H         1.579855        8.805841       17.436781
