381
 generated by VMD
 O         9.088972        1.756709       12.323974
 O        12.965326        4.516616       10.087801
 O        14.283852        5.410692       12.316276
 O        12.958608        4.541627       14.550742
 O        10.406601        0.850228       14.554257
 O        10.376434        5.442454       14.555187
 O        12.964171        1.785568       10.087399
 O        12.975925        1.798489       14.551949
 O         9.076991        4.495494       16.782547
 O         9.058717        4.505789       12.338384
 O        10.377004        5.417276       10.099691
 O        10.382086        0.864493       10.077678
 O        14.276081        0.881550       12.324982
 O        14.266728        0.862787       16.768761
 O        14.239141        5.415604       16.811630
 O         9.039442        1.757620       16.751217
 O         9.321320        9.122545        3.319049
 O        12.999997       11.838799        1.092052
 O        14.308441       12.735315        3.326874
 O        13.011830       11.826909        5.606480
 O        10.458920        8.149406        5.630138
 O        10.420576       12.728181        5.629441
 O        13.016572        9.074975        1.103464
 O        13.005307        9.077370        5.611040
 O         9.106107       11.803308        7.840602
 O         9.163908       11.906799        3.354345
 O        10.401630       12.727433        1.071751
 O        10.463560        8.152861        1.023461
 O        14.248404        8.140214        3.371905
 O        14.273373        8.170556        7.860975
 O        14.275135       12.706408        7.874134
 O         9.137794        9.083421        7.844213
 O         1.258058        9.055310        3.368596
 O         5.012775       11.811636        0.701417
 O         6.495778       12.721464        3.426511
 O         5.212308       11.933656        5.611426
 O         2.513201        8.094063        5.633441
 O         2.583965       12.752720        5.612469
 O         4.804652        9.296716        0.390643
 O         5.078498        9.134943        6.022764
 O         1.314767       11.778880        7.846810
 O         1.327397       11.835995        3.319023
 O         2.730538       12.729612        0.921402
 O         2.416687        8.037299        1.157575
 O         6.546036        8.126343        7.938333
 O         6.524889       12.747348        7.864783
 O         1.325361        9.056631        7.858611
 O         1.340645        1.642666        3.290038
 O         5.176208        4.419727        1.057524
 O         6.506111        5.251069        3.303705
 O         5.202037        4.505526        5.615438
 O         2.592650        0.877764        5.595719
 O         2.586499        5.349188        5.590700
 O         5.214588        1.711672        1.090862
 O         5.179092        1.791868        5.594457
 O         1.275204        4.485221        7.838253
 O         1.316147        4.397430        3.332656
 O         2.565325        5.304451        1.078401
 O         2.657520        0.774280        1.071147
 O         6.521844        0.881678        3.341963
 O         6.487609        0.881466        7.834945
 O         6.510337        5.419044        7.853111
 O         1.275771        1.748032        7.836967
 O         9.122828        1.737236        3.321473
 O        12.999887        4.484051        1.112372
 O        14.287900        5.385290        3.355458
 O        12.991430        4.486562        5.600372
 O        10.378482        0.852108        5.592003
 O        10.398284        5.409864        5.598058
 O        12.977550        1.747435        1.091907
 O        12.969265        1.746040        5.589966
 O         9.112372        4.494386        7.840514
 O         9.154919        4.447659        3.335613
 O        10.405407        5.393908        1.060151
 O        10.397293        0.861469        1.035231
 O        14.253787        0.860452        3.344778
 O        14.230495        0.838252        7.845928
 O        14.230144        5.431089        7.852810
 O         9.095813        1.750528        7.835291
 O         1.335009        1.744225       12.278419
 O         5.202366        4.506645       10.051263
 O         6.480969        5.426208       12.311334
 O         5.180801        4.496333       14.527389
 O         2.636374        0.835141       14.525482
 O         2.587621        5.407046       14.524053
 O         5.181456        1.778748       10.069868
 O         5.205297        1.768023       14.560434
 O         1.280303        4.476169       16.746435
 O         1.325998        4.487006       12.277822
 O         2.612109        5.389059       10.052289
 O         2.615177        0.826065       10.053066
 O         6.500558        0.876305       12.306288
 O         6.496376        0.801578       16.814718
 O         6.480025        5.389760       16.771709
 O         1.339366        1.727560       16.752661
 O         9.099367        9.108083       12.324343
 O        12.958194       11.794098       10.109173
 O        14.258362       12.741387       12.321206
 O        12.979915       11.818731       14.561971
 O        10.397012        8.198928       14.552734
 O        10.387192       12.707652       14.572516
 O        12.988780        9.063053       10.107057
 O        12.990438        9.092530       14.546258
 O         9.045594       11.774459       16.800308
 O         9.089576       11.848894       12.326872
 O        10.372177       12.721919       10.084076
 O        10.401226        8.155647       10.105378
 O        14.297390        8.147364       12.337849
 O        14.228162        8.143658       16.788860
 O        14.297631       12.734364       16.774441
 O         9.091278        9.067727       16.809746
 O         1.347704        9.065134       12.331179
 O         5.210314       11.814264       10.092499
 O         6.486564       12.744001       12.305612
 O         5.259524       11.801310       14.525499
 O         2.622412        8.150496       14.584577
 O         2.641179       12.694148       14.559858
 O         5.233770        9.081739       10.078419
 O         5.224844        9.065887       14.446537
 O         1.310325       11.786866       16.811041
 O         1.300386       11.815923       12.307951
 O         2.616385       12.693429       10.060794
 O         2.643600        8.133980       10.088875
 O         6.523921        8.166432       12.263285
 O         6.475566        8.119285       16.670841
 O         6.322084       12.753804       16.777792
 O         1.242809        9.048980       16.814602
 H         9.554371        1.438817       11.542088
 H         9.568152        1.418753       13.087381
 H        12.058817        4.843055       10.080881
 H        13.387235        4.852664        9.288560
 H        15.182494        5.065688       12.279997
 H        13.833215        5.093841       11.525287
 H        13.421675        4.862270       15.332064
 H        13.441730        4.865819       13.782805
 H        11.319213        1.158839       14.555884
 H        10.433519       14.490281       14.568029
 H        11.293484        5.147061       14.550207
 H        10.398857        6.404608       14.549399
 H        12.975587        2.749370       10.099825
 H        13.425067        1.492273       10.879829
 H        13.439256        1.506009       13.759174
 H        12.970901        2.761840       14.533051
 H         9.541994        4.844095       16.014740
 H         9.550598        4.817829       17.558424
 H         9.080247        3.543524       12.352441
 H         9.525014        4.807546       13.124905
 H         9.913108        5.119131       10.888064
 H        10.364174        6.380401       10.117466
 H         9.946701        1.187233        9.280525
 H        11.283900        1.201959       10.059526
 H        15.196792        1.164297       12.306091
 H        14.283316       14.520637       12.320475
 H        13.827975        1.212401       15.984673
 H        15.173165        1.184488       16.744394
 H        15.140354        5.077256       16.812572
 H        13.814837        5.074567       17.607750
 H         9.521759        1.465404       15.970248
 H         9.059251        2.721896       16.744741
 H         8.431059        8.757747        3.291174
 H         9.215397       10.079812        3.330088
 H        12.092991       12.161382        1.067104
 H        13.431090       12.164634        0.296154
 H        13.832560       12.432467        2.545764
 H        14.266575       13.698405        3.317850
 H        13.479665       12.155518        4.834023
 H        13.481750       12.148963        6.383099
 H        10.031526        8.469658        4.829223
 H        10.416372        7.187423        5.595921
 H         9.976905       12.382296        6.412284
 H        11.325946       12.401611        5.647480
 H        12.102218        8.766746        1.075175
 H        12.987351       10.036346        1.101344
 H        12.975260       10.038918        5.608593
 H        12.091581        8.765213        5.626942
 H         8.191170       12.102517        7.836840
 H         9.087675       10.838428        7.835723
 H         8.248639       12.185414        3.420405
 H         9.599297       12.200458        4.162881
 H         9.916962       12.367321        0.325113
 H         9.949340       12.428254        1.870022
 H        10.044511        8.471124        1.831447
 H        10.424092        7.190948        1.058290
 H        13.783343        8.473192        2.597290
 H        13.779565        8.472454        4.146663
 H        13.846757        8.510617        7.066777
 H        15.183441        8.487949        7.845371
 H        13.829605       12.366199        8.656895
 H        15.177378       12.368606        7.894815
 H         9.602503        8.746987        8.615906
 H         9.595850        8.740461        7.069270
 H         0.335472        8.769989        3.381259
 H         1.256712       10.015276        3.366558
 H         5.545034       12.231780       -0.071854
 H         4.067583       12.211155        0.785013
 H         6.031334       12.412801        4.224264
 H         6.078463       12.287586        2.696343
 H         4.303310       12.243620        5.650899
 H         5.648581       12.223351        6.419759
 H         2.086358        8.402224        4.831345
 H         2.545834        7.134029        5.583295
 H         2.150007       12.451472        4.810783
 H         2.567054       13.716013        5.594014
 H         4.961785       10.835005        0.581779
 H         5.463406        8.822938       -0.157369
 H         4.205401        8.803221        5.823547
 H         5.102001       10.063052        5.806542
 H         1.765450       12.095510        7.057433
 H         1.343160       10.814781        7.819397
 H         1.762746       12.143466        2.528562
 H         0.423135       12.176863        3.292161
 H         2.687617       13.702435        0.966759
 H         2.174922       12.432216        0.181071
 H         3.296228        8.385239        1.093758
 H         2.026743        8.398362        1.965343
 H         7.442816        8.463031        7.866450
 H         6.044138        8.492825        7.189558
 H         6.509266       13.710001        7.885815
 H         6.061279       12.441131        8.650587
 H         1.767449        8.695839        7.079115
 H         1.806468        8.731319        8.625976
 H         0.422620        1.352770        3.330105
 H         1.761102        1.361698        4.110739
 H         5.615644        4.740740        1.854279
 H         4.273301        4.751248        1.088121
 H         6.601659        6.206518        3.277790
 H         6.047578        5.050156        4.128887
 H         4.298410        4.836792        5.629292
 H         5.645597        4.858953        6.394065
 H         2.151364        1.207273        6.386093
 H         3.495586        1.214450        5.613021
 H         2.102833        5.030209        6.359298
 H         2.139684        4.998207        4.815104
 H         5.679618        1.445535        1.893276
 H         5.202887        2.678411        1.088757
 H         5.199603        2.757428        5.588049
 H         5.650191        1.501692        4.808724
 H         1.238647        3.523172        7.846718
 H         0.365552        4.801245        7.849084
 H         1.324935        3.436108        3.309003
 H         1.768359        4.691355        2.534961
 H         2.507163        6.263264        1.109368
 H         2.109698        5.030049        0.275944
 H         3.552887        1.134172        1.108161
 H         2.199682        1.081697        1.864735
 H         7.441833        1.171248        3.338411
 H         6.534888       14.523838        3.369114
 H         6.014799        1.204200        7.060510
 H         6.018440        1.216378        8.606157
 H         6.545431        6.385014        7.859053
 H         7.421723        5.112273        7.832316
 H         1.719285        1.413377        8.623024
 H         0.373680        1.410127        7.858972
 H         9.573044        1.452265        2.521144
 H         9.150687        2.702892        3.323987
 H        13.452034        4.783370        1.908639
 H        13.003472        3.521552        1.131154
 H        15.200380        5.078295        3.353959
 H        14.307579        6.347476        3.365502
 H        13.446774        4.781234        4.805178
 H        12.995852        3.524117        5.582907
 H         9.936512        1.138291        4.785419
 H        10.380290       14.490660        5.584874
 H        11.298918        5.073201        5.621578
 H         9.957891        5.082397        6.389247
 H        13.416499        1.429161        0.297068
 H        12.068843        1.428447        1.051890
 H        13.395991        1.413484        6.386860
 H        12.060223        1.426991        5.609227
 H         9.117870        3.532357        7.859533
 H         9.557033        4.793817        8.639410
 H         8.240346        4.746992        3.342738
 H         9.565513        4.810346        4.128009
 H        11.307670        5.061864        1.099463
 H         9.966755        5.084494        1.859828
 H        10.380525       14.500669        1.022387
 H         9.920424        1.159830        0.254926
 H        13.785525        1.186258        4.121995
 H        13.784370        1.191310        2.571379
 H        13.780551        1.149844        8.638535
 H        14.228552       14.477543        7.881353
 H        14.235528        6.394279        7.828434
 H        13.789916        5.130575        7.050298
 H         9.521181        1.425926        7.034105
 H         8.185097        1.439173        7.814034
 H         1.799264        1.406731       11.503408
 H         1.809350        1.417665       13.048660
 H         5.659183        4.844055       10.827994
 H         5.685079        4.838297        9.282870
 H         6.517808        6.388245       12.286363
 H         7.392985        5.115615       12.314317
 H         5.649673        4.821372       15.303695
 H         5.651983        4.836123       13.757509
 H         3.549025        1.144032       14.532107
 H         2.664790       14.475728       14.526793
 H         3.493109        5.079526       14.507546
 H         2.160446        5.080082       13.724111
 H         5.194918        2.743071       10.080902
 H         5.650984        1.487960       10.857738
 H         5.205431        2.732872       14.568411
 H         5.661094        1.480652       15.355726
 H         1.305481        3.514906       16.722620
 H         1.741869        4.784242       15.959105
 H         1.785125        4.785324       11.483597
 H         1.340186        3.524405       12.258794
 H         2.167876        5.067174        9.260259
 H         3.520711        5.070024       10.018209
 H         3.526320        1.138941       10.049418
 H         2.646255       14.465302       10.045580
 H         7.409597        1.196405       12.328568
 H         6.069808        1.205079       13.101114
 H         7.400828        1.141921       16.806320
 H         6.074280        1.147633       17.611628
 H         7.389539        5.073186       16.804354
 H         6.043999        5.060300       17.565025
 H         1.810434        1.399231       15.978353
 H         1.812400        1.405424       17.523596
 H         9.107035       10.070601       12.343704
 H         9.555266        8.809854       13.118776
 H        12.043157       12.093851       10.094211
 H        12.939418       10.830451       10.109716
 H        13.791108       12.409531       13.095046
 H        13.788269       12.402338       11.550756
 H        12.971527       10.854515       14.556203
 H        12.060192       12.103360       14.568832
 H        11.303619        8.523346       14.568242
 H         9.970782        8.515837       15.355340
 H         9.917557       12.399947       13.788575
 H         9.907029       12.370748       15.333735
 H        13.450940        8.740574        9.324913
 H        13.467606        8.728198       10.871974
 H        13.437996        8.744109       15.324895
 H        13.461988        8.750498       13.778329
 H         9.033602       10.807697       16.812424
 H         8.136627       12.063626       16.808777
 H         8.184635       12.174478       12.294580
 H         9.526215       12.168303       11.528088
 H         9.921450       12.418137        9.287499
 H        10.373288       13.684652       10.054252
 H         9.960168        8.508130       10.884775
 H        11.308545        8.476483       10.130926
 H        14.316538        7.184086       12.327415
 H        15.212961        8.445351       12.332189
 H        14.216455        7.180161       16.821241
 H        13.794508        8.456654       17.591619
 H        13.831378       12.428368       15.987959
 H        14.277573       13.698032       16.749575
 H         8.202864        8.704704       16.814030
 H         9.536742        8.728898       17.597765
 H         1.342204       10.027534       12.338213
 H         1.799579        8.780863       13.131486
 H         4.288973       12.093678       10.074054
 H         5.204869       10.849799       10.071368
 H         6.477977       13.707215       12.278136
 H         6.030313       12.434385       11.513041
 H         5.693072       12.126637       13.724065
 H         5.273545       10.837680       14.476155
 H         2.595993        7.187251       14.580792
 H         2.149894        8.437240       15.371419
 H         2.202876       12.351789       15.343805
 H         3.538780       12.350025       14.558616
 H         4.336832        8.734756       10.051531
 H         5.692926        8.738705        9.297526
 H         5.651172        8.737216       13.643375
 H         4.321429        8.734476       14.451610
 H         1.258025       10.823205       16.824507
 H         0.400958       12.113793       16.790424
 H         0.396651       12.149866       12.331685
 H         1.743019       12.150566       13.091930
 H         2.137092       12.377966       10.833018
 H         2.149529       12.357630        9.286695
 H         2.189591        8.435091       10.881224
 H         2.617147        7.171783       10.098459
 H         6.090449        8.496675       11.464842
 H         7.424757        8.507156       12.259545
 H         6.081710        8.372102       15.827518
 H         6.470877        7.154939       16.714771
 H         5.959426       12.457920       15.925202
 H         6.393907       13.725544       16.765974
 H         1.616146        8.686604       17.623163
 H         0.332596        8.726891       16.783480
