381
 generated by VMD
 O         9.100269        1.773780       12.324517
 O        12.992959        4.526013       10.099584
 O        14.261587        5.432198       12.339793
 O        12.974152        4.519585       14.577395
 O        10.389988        0.892149       14.561426
 O        10.392019        5.425893       14.543653
 O        12.997839        1.779911       10.088821
 O        12.977576        1.783767       14.575548
 O         9.078780        4.513517       16.780434
 O         9.124780        4.519534       12.282027
 O        10.416537        5.467379       10.051742
 O        10.405971        0.864482       10.072097
 O        14.277600        0.883831       12.331697
 O        14.268542        0.843501       16.802473
 O        14.279374        5.397942       16.815645
 O         9.057855        1.778741       16.803909
 O         9.126617        9.034583        3.299184
 O        12.990385       11.789580        1.063336
 O        14.241469       12.707030        3.317103
 O        13.052179       11.786328        5.587309
 O        10.399265        8.124367        5.522601
 O        10.529034       12.730846        5.516491
 O        12.982242        9.057029        1.098837
 O        12.984282        9.054539        5.594270
 O         9.285136       11.713144        7.783369
 O         9.157650       11.798377        3.297273
 O        10.414175       12.715095        1.049312
 O        10.393735        8.182976        1.041829
 O        14.277581        8.152262        3.359755
 O        14.228572        8.139327        7.863390
 O        14.257541       12.714657        7.864129
 O         8.920471        9.002470        7.687008
 O         1.353562        8.985709        3.407856
 O         5.225401       11.807857        1.091236
 O         6.557125       12.730750        3.299678
 O         4.804644       11.477637        5.219119
 O         2.706368        8.080661        5.550215
 O         2.487024       12.718175        5.489671
 O         5.221965        9.046841        1.055002
 O         5.019975        8.988385        5.734203
 O         1.265974       11.772294        7.784862
 O         1.243657       11.774278        3.265657
 O         2.635865       12.732346        1.082421
 O         2.621452        8.164433        1.132992
 O         6.610412        8.139717        3.283274
 O         6.384262        8.178301        7.581425
 O         1.292934        9.073472        7.844588
 O         1.310496        1.770801        3.331030
 O         5.185850        4.490447        1.097682
 O         6.554511        5.376425        3.311375
 O         5.206330        4.551545        5.549630
 O         2.607866        0.828261        5.561172
 O         2.582968        5.428030        5.552955
 O         5.216763        1.762534        1.091067
 O         5.178417        1.779454        5.538828
 O         1.339932        4.520958        7.799381
 O         1.297405        4.497320        3.349016
 O         2.627868        5.431731        1.119607
 O         2.631757        0.877243        1.112512
 O         6.541183        0.890766        3.309922
 O         6.528444        0.983926        7.842088
 O         6.447787        5.524362        7.784256
 O         1.321345        1.756551        7.791070
 O         9.113127        1.788183        3.315585
 O        12.975018        4.501094        1.109571
 O        14.246153        5.402659        3.365859
 O        13.003691        4.469501        5.617431
 O        10.402031        0.884450        5.582016
 O        10.437405        5.398727        5.559577
 O        12.979830        1.761470        1.085871
 O        12.981716        1.743509        5.592380
 O         9.100064        4.574491        7.807603
 O         9.135823        4.531862        3.309538
 O        10.395598        5.444493        1.058734
 O        10.390352        0.851963        1.076310
 O        14.253695        0.838983        3.324375
 O        14.267329        0.856869        7.849415
 O        14.280756        5.389774        7.860542
 O         9.140901        1.866130        7.837337
 O         1.330685        1.780037       12.323959
 O         5.217273        4.534926       10.013021
 O         6.525596        5.373184       12.294226
 O         5.205647        4.516868       14.539636
 O         2.595433        0.851324       14.570533
 O         2.612986        5.400473       14.557128
 O         5.178776        1.811039       10.086389
 O         5.177224        1.776071       14.569426
 O         1.337009        4.516286       16.811361
 O         1.313421        4.500731       12.318497
 O         2.601785        5.396248       10.073405
 O         2.593233        0.863991       10.082713
 O         6.512009        0.904751       12.324469
 O         6.479432        0.840200       16.793484
 O         6.483895        5.437870       16.793812
 O         1.308379        1.769731       16.824430
 O         9.057857        9.072044       12.277686
 O        12.997605       11.800784       10.102858
 O        14.267873       12.736573       12.340734
 O        12.998356       11.819938       14.568112
 O        10.360890        8.160867       14.513220
 O        10.423852       12.757941       14.557993
 O        12.920399        9.070264       10.073243
 O        12.937637        9.081591       14.561375
 O         9.098852       11.831890       16.752697
 O         9.135598       11.796227       12.325263
 O        10.446345       12.717144       10.089942
 O        10.303461        8.204840       10.008646
 O        14.224039        8.170820       12.321103
 O        14.252180        8.143080       16.788700
 O        14.295881       12.706954       16.792793
 O         9.091086        9.098091       16.754841
 O         1.292175        9.055068       12.330662
 O         4.822927       11.698860       10.532663
 O         6.557163       12.751430       12.441104
 O         5.215002       11.801183       14.584032
 O         2.583705        8.138044       14.568245
 O         2.635362       12.719378       14.556121
 O         5.163486        8.929184       10.114552
 O         5.191677        9.046070       14.554109
 O         1.350471       11.807679       16.778406
 O         1.290581       11.816210       12.353689
 O         2.468198       12.752501       10.111218
 O         2.555572        8.131148       10.100513
 O         6.484980        8.112405       12.342925
 O         6.510056        8.178847       16.777626
 O         6.494545       12.698688       16.803539
 O         1.301659        9.067047       16.822536
 H         9.085780        2.735509       12.302234
 H         8.180956        1.483167       12.315686
 H        13.418859        4.856905       10.898348
 H        12.091367        4.864395       10.103436
 H        14.243590        6.395216       12.353790
 H        13.805533        5.133609       13.134056
 H        12.985769        3.555973       14.589837
 H        13.435510        4.809647       15.371451
 H         9.920439        1.212581       13.782218
 H         9.905170        1.211819       15.328753
 H         9.944508        5.091857       15.327926
 H        11.297129        5.097855       14.579592
 H        13.454097        1.478235       10.882125
 H        13.005973        2.741921       10.115192
 H        12.068295        1.464909       14.587811
 H        13.407415        1.434792       15.363368
 H         9.048902        3.550178       16.789501
 H         8.165530        4.817051       16.786024
 H         9.595312        4.860607       11.514590
 H         9.586591        4.844040       13.061904
 H         9.954360        5.161057        9.264824
 H        10.379156        6.429383       10.028139
 H        11.309561        1.192888       10.106878
 H         9.962955        1.182397       10.864821
 H        13.842220        1.209983       13.126057
 H        15.183972        1.209371       12.352735
 H        15.181930        1.149568       16.805044
 H        14.298625       14.482689       16.796762
 H        15.185143        5.071113       16.833437
 H        13.846914        5.074165       17.612753
 H         8.159523        1.432289       16.820122
 H         9.502946        1.442226       17.588640
 H         9.592930        8.725900        2.512847
 H         9.608034        8.698476        4.065166
 H        13.439858       12.128643        1.844401
 H        13.468153       12.124249        0.295867
 H        14.233475       13.670539        3.339370
 H        13.816628       12.404580        4.128959
 H        12.151259       12.134971        5.577739
 H        13.463321       12.119779        6.392107
 H        11.305938        8.446742        5.564998
 H        10.447390        7.161444        5.534374
 H        10.452664       13.690096        5.541289
 H        10.033754       12.433660        4.748683
 H        13.000612       10.020238        1.066259
 H        13.439246        8.747225        0.309262
 H        13.419744        8.749642        6.397346
 H        13.007932       10.018482        5.618526
 H         9.719342       12.065973        6.998220
 H         8.421954       12.143167        7.789061
 H         8.248245       12.106192        3.321128
 H         9.124543       10.837801        3.310507
 H         9.985271       12.380054        1.843982
 H        11.317318       12.380729        1.063368
 H         9.961209        8.526089        0.251854
 H        11.301127        8.508074        1.029720
 H        13.809923        8.479813        2.583916
 H        13.807940        8.487008        4.132513
 H        15.128761        8.473726        7.891634
 H        13.781322        8.474996        8.649261
 H        14.247820       13.677531        7.887465
 H        13.805573       12.411788        8.660773
 H         9.017619        9.964405        7.702516
 H         9.441025        8.698451        6.935643
 H         0.440754        8.673739        3.378731
 H         1.776096        8.688749        2.592504
 H         5.678152       12.115941        0.295520
 H         5.237721       10.846777        1.054131
 H         6.079076       12.401807        2.528623
 H         6.090372       12.412151        4.060875
 H         4.955770        9.964029        5.633051
 H         3.957558       11.950049        5.349151
 H         2.219541        8.398222        4.771077
 H         2.639338        7.108822        5.547007
 H         1.991963       12.459238        4.703879
 H         2.540818       13.682662        5.499542
 H         5.723920        8.720737        1.804275
 H         5.681435        8.737129        0.263861
 H         4.085885        8.583788        5.678358
 H         5.605206        8.660404        6.549409
 H         0.362693       12.112066        7.806804
 H         1.673343       12.133384        6.994420
 H         0.324823       12.072336        3.256870
 H         1.232267       10.815230        3.307272
 H         3.536487       12.393231        1.110904
 H         2.175500       12.382751        1.850605
 H         3.537360        8.459585        1.101922
 H         2.644634        7.200798        1.117248
 H         7.522585        8.472384        3.303599
 H         6.189583        8.452518        4.072423
 H         7.303827        8.506935        7.603544
 H         6.418883        7.206235        7.658674
 H         1.744018        8.758101        7.064729
 H         1.295811       10.039787        7.799736
 H         1.777519        1.441780        4.106491
 H         1.791184        1.446577        2.561158
 H         5.204863        3.526168        1.095998
 H         5.677464        4.771711        1.875184
 H         7.469592        5.067889        3.318155
 H         6.599261        6.334587        3.282765
 H         4.295102        4.853090        5.503346
 H         5.652810        4.853621        4.751525
 H         2.174540        1.155554        6.357827
 H         3.513184        1.158578        5.580994
 H         2.107413        5.078036        4.788060
 H         2.134776        5.091330        6.340021
 H         5.674892        1.428306        0.311510
 H         5.703725        1.442233        1.859107
 H         5.198961        2.739456        5.523369
 H         5.661989        1.480947        4.762232
 H         0.430557        4.837887        7.842106
 H         1.772157        4.826058        8.605005
 H         1.279379        3.533042        3.339085
 H         0.380449        4.793548        3.344748
 H         2.178236        5.092385        1.899804
 H         3.526018        5.081471        1.140422
 H         3.549394        1.172462        1.107216
 H         2.652978       14.517244        1.100658
 H         7.455462        1.197197        3.325387
 H         6.576020       14.533467        3.330712
 H         6.063772        1.205981        7.028839
 H         6.658742       14.633373        7.817668
 H         6.005165        5.139472        7.019351
 H         6.006606        5.169696        8.567438
 H         0.403581        1.463637        7.812550
 H         1.304518        2.717867        7.793025
 H         9.570890        1.473709        2.528705
 H         9.138138        2.749617        3.286040
 H        13.393007        4.825842        1.913770
 H        12.074132        4.841121        1.106035
 H        14.236820        6.364898        3.387219
 H        13.804496        5.098604        4.166820
 H        13.455991        4.760877        6.416232
 H        13.012765        3.505042        5.622960
 H         9.932354        1.204819        6.359175
 H         9.924319        1.210656        4.813682
 H         9.980940        5.093948        6.351300
 H        11.335544        5.051933        5.605968
 H        13.437362        1.462957        0.292034
 H        12.984046        2.724062        1.068987
 H        12.068934        1.431132        5.569010
 H        13.409677        1.412402        4.796750
 H         9.085016        3.608009        7.830815
 H         8.187368        4.868165        7.806881
 H         9.617444        4.840537        4.084687
 H         9.595701        4.872415        2.534255
 H        10.385086        6.406750        1.020231
 H         9.932260        5.130255        0.274505
 H        10.418549       14.491057        1.073467
 H        11.304895        1.153201        1.075313
 H        13.819031        1.175842        2.532926
 H        15.156471        1.171687        3.306913
 H        13.803624        1.196124        8.623267
 H        13.787575        1.166991        7.074471
 H        14.247827        6.351686        7.874249
 H        13.829163        5.092080        8.659326
 H         8.235863        1.537497        7.843718
 H         9.565648        1.499821        8.620692
 H         1.798855        1.441160       13.094205
 H         1.788998        1.446074       11.543653
 H         5.190515        3.569542       10.025487
 H         4.301214        4.828952       10.047526
 H         6.089482        5.060527       11.495282
 H         7.434762        5.056123       12.262133
 H         5.669849        4.855849       15.311454
 H         5.688741        4.821183       13.763963
 H         2.597475       14.489851       14.584340
 H         2.136064        1.143243       15.363798
 H         3.522457        5.085049       14.521631
 H         2.171304        5.071745       13.766284
 H         5.628057        1.473740        9.303999
 H         4.286525        1.449945       10.065864
 H         4.261732        1.477883       14.569213
 H         5.159763        2.738477       14.566330
 H         1.809333        4.856439       17.577414
 H         1.802288        4.833349       16.029198
 H         1.292004        3.536616       12.318436
 H         0.399475        4.803300       12.325776
 H         2.570213        6.358117       10.105410
 H         2.147103        5.084149       10.863843
 H         2.149728        1.161612        9.283643
 H         2.560877       14.501003       10.068546
 H         6.034729        1.213127       11.547516
 H         6.027257        1.221629       13.092327
 H         6.022138        1.148309       16.003063
 H         6.470867       14.479696       16.763920
 H         6.021508        5.136359       17.581438
 H         6.480382        6.400579       16.813753
 H         1.326316        2.732251       16.832561
 H         1.778046        1.479272       17.613075
 H         8.141390        8.778779       12.304269
 H         9.051199       10.036522       12.299846
 H        13.433986       12.131191       10.895595
 H        12.096071       12.146256       10.119836
 H        15.183332       12.432424       12.351550
 H        14.293252       13.698945       12.338914
 H        13.450184       12.117551       13.769897
 H        12.980471       10.857640       14.541040
 H         9.906605        8.454242       13.715815
 H        10.357209        7.197611       14.501211
 H        11.339840       12.461532       14.565205
 H        10.436399       13.721098       14.553757
 H        12.921465       10.034756       10.082684
 H        11.998543        8.795468       10.044790
 H        13.373525        8.739379       15.348310
 H        12.033040        8.750529       14.571239
 H         9.570379       12.150393       17.529659
 H         9.570793       12.176414       15.985601
 H         9.590616       12.126675       11.543344
 H         9.611582       12.136852       13.088734
 H        10.398482       13.678238       10.049059
 H        10.025499       12.388407        9.289313
 H         9.810408        8.496353        9.238846
 H         9.831633        8.527727       10.785586
 H        13.754279        8.505241       13.092628
 H        13.748370        8.489862       11.547094
 H        14.283794        7.180624       16.792690
 H        15.164741        8.450383       16.793568
 H        15.200791       12.378738       16.763517
 H        13.856453       12.381247       15.998384
 H         9.108169       10.061735       16.729145
 H         9.538923        8.789905       15.959396
 H         0.384485        8.735238       12.352025
 H         1.725539        8.723106       13.124225
 H         5.480977       12.061650       11.123461
 H         5.036024       10.783140       10.380713
 H         7.467648       12.451987       12.369629
 H         6.569573       13.710187       12.373806
 H         5.697983       12.121905       13.810681
 H         5.214957       10.840486       14.536665
 H         2.579648        7.175083       14.586781
 H         2.136014        8.436432       15.365808
 H         2.193579       12.391321       13.764436
 H         3.540618       12.389885       14.528264
 H         4.247239        8.632747       10.081975
 H         5.563142        8.708237        9.279139
 H         5.620802        8.703198       13.761826
 H         4.285049        8.724341       14.539831
 H         1.820208       12.131839       16.000595
 H         1.817004       12.150838       17.546564
 H         1.309370       10.855252       12.326133
 H         1.704456       12.126934       11.537375
 H         3.359008       12.373611       10.207937
 H         2.099127       12.405996        9.297628
 H         2.106576        8.471471       10.884014
 H         2.089764        8.484406        9.337900
 H         6.023066        8.384758       11.542856
 H         6.505428        7.149652       12.325422
 H         7.411925        8.517074       16.745815
 H         6.062856        8.495061       15.983392
 H         6.054834       12.360959       16.013042
 H         7.406306       12.390401       16.765024
 H         1.327096       10.030355       16.820745
 H         1.761559        8.779823       17.616369
