381
 generated by VMD
 O         9.055608        1.761027       12.351428
 O        12.959523        4.531136       10.092202
 O        14.296063        5.410622       12.319513
 O        13.004616        4.517563       14.565955
 O        10.425059        0.854946       14.539397
 O        10.395350        5.404950       14.570182
 O        12.902785        1.786173       10.099913
 O        13.006728        1.769801       14.540241
 O         9.090589        4.510695       16.799129
 O         9.082676        4.496950       12.325238
 O        10.380652        5.425512       10.085898
 O        10.344315        0.842882       10.123931
 O        14.248178        0.840437       12.293864
 O        14.252128        0.862505       16.781752
 O        14.267448        5.432768       16.808441
 O         9.099485        1.774635       16.746294
 O         9.125552        9.073656        3.348104
 O        13.019788       11.793814        1.140704
 O        14.399360       12.599430        3.382862
 O        12.960062       11.791969        5.578344
 O        10.381474        8.159899        5.607216
 O        10.357874       12.659209        5.599010
 O        12.994089        9.064899        1.100781
 O        12.971112        9.057667        5.618556
 O         8.985445       11.772038        7.813422
 O         9.118366       11.808319        3.313991
 O        10.416557       12.705020        1.101166
 O        10.403741        8.171803        1.116411
 O        14.307343        8.224890        3.360374
 O        14.243070        8.108194        7.860051
 O        14.210987       12.746400        7.803996
 O         9.046618        9.042148        7.842541
 O         1.345979        9.148333        3.335540
 O         5.271642       11.785223        1.040983
 O         6.500495       12.688901        3.273696
 O         5.081318       11.733136        5.565914
 O         2.634975        8.236843        5.598514
 O         2.776855       12.662795        5.366717
 O         5.271270        9.048292        1.097725
 O         5.253022        9.089421        5.573882
 O         1.175449       11.795245        7.828386
 O         1.407964       11.817025        3.508629
 O         2.685500       12.596624        1.035878
 O         2.646673        8.176987        1.141944
 O         6.540810        8.205718        3.361701
 O         6.458882        8.130273        7.814456
 O         6.420366       12.711104        7.684072
 O         1.317014        9.024666        7.860571
 O         5.211010        4.580582        1.108811
 O         6.517763        5.454702        3.373684
 O         5.229971        4.497986        5.592351
 O         2.986804        0.546985        5.676612
 O         2.643005        5.463404        5.672628
 O         5.377980        1.839359        1.032320
 O         5.341909        1.762192        5.616485
 O         1.302619        4.544520        7.862714
 O         1.264260        4.649538        3.392034
 O         2.606455        5.450809        1.117402
 O         2.845636        0.774791        0.546745
 O         6.567760        0.855500        3.325163
 O         6.533296        0.835272        7.862557
 O         6.516206        5.408455        7.843118
 O         1.175010        1.844304        7.724316
 O         9.122508        1.785859        3.318777
 O        12.948037        4.520644        1.078379
 O        14.186901        5.518686        3.335701
 O        12.949864        4.521657        5.593943
 O        10.244105        0.803134        5.616890
 O        10.380936        5.414773        5.626427
 O        12.916533        1.766405        1.040979
 O        12.797428        1.773364        5.635485
 O         9.097683        4.492124        7.859859
 O         9.094844        4.525623        3.368849
 O        10.344867        5.429984        1.102525
 O        10.339615        0.830129        1.052151
 O        14.045176        0.815747        3.370586
 O        14.123707        0.876496        7.835052
 O        14.238669        5.394443        7.833220
 O         9.063097        1.753479        7.906849
 O         1.294796        1.771928       12.228898
 O         5.193370        4.486236       10.050281
 O         6.503361        5.415057       12.284327
 O         5.236636        4.469911       14.553926
 O         2.600358        0.876924       14.478796
 O         2.643373        5.400803       14.584307
 O         5.174487        1.736160       10.066328
 O         5.197194        1.733330       14.534347
 O         1.339241        4.526806       16.807037
 O         1.342703        4.506454       12.349835
 O         2.616379        5.415258       10.109741
 O         2.557411        0.848786        9.953641
 O         6.470518        0.838157       12.303390
 O         6.528456        0.839893       16.747368
 O         6.502729        5.420356       16.795362
 O         1.296554        1.824994       16.642805
 O         9.110188        9.064763       12.352486
 O        12.909827       11.805812       10.054330
 O        14.234361       12.704373       12.300531
 O        12.972360       11.779031       14.565967
 O        10.414809        8.145166       14.583687
 O        10.397976       12.707052       14.559293
 O        12.952823        9.066898       10.074343
 O        13.000502        9.045686       14.541942
 O         9.104685       11.811005       16.805897
 O         9.073594       11.800067       12.316373
 O        10.311196       12.704271       10.034275
 O        10.358095        8.173033       10.085243
 O        14.275327        8.144482       12.283888
 O        14.293837        8.177168       16.807899
 O        14.277543       12.701214       16.812960
 O         9.114120        9.069310       16.821554
 O         1.326882        9.065432       12.340610
 O         5.161525       11.824408       10.009954
 O         6.477190       12.708096       12.276124
 O         5.192277       11.813226       14.539128
 O         2.623827        8.138524       14.563416
 O         2.614953       12.749618       14.537388
 O         5.225080        9.070907       10.076721
 O         5.211340        9.065567       14.548853
 O         1.325496       11.797027       16.769136
 O         1.289010       11.806133       12.305662
 O         2.549695       12.697952       10.066457
 O         2.636618        8.152684       10.105068
 O         6.517999        8.166953       12.308188
 O         6.529658        8.151759       16.780918
 O         6.521888       12.722444       16.758900
 O         1.355163        9.065088       16.815092
 H         9.074207        2.724194       12.362520
 H         9.534558        1.462535       13.132488
 H        13.450542        4.848188       10.857828
 H        13.424582        4.845402        9.308950
 H        15.199731        5.077866       12.350357
 H        13.857341        5.090425       13.115525
 H        12.096643        4.835422       14.586286
 H        13.433186        4.854109       15.361565
 H        10.443512       14.494574       14.546584
 H        11.341410        1.153259       14.536495
 H         9.924070        5.075567       15.343506
 H         9.922338        5.080350       13.797544
 H        13.336076        1.482480        9.294028
 H        12.929665        2.748742       10.079372
 H        13.019162        2.732276       14.569277
 H        13.451224        1.463563       15.340280
 H         8.183979        4.834980       16.819588
 H         9.519330        4.839595       17.597160
 H         8.179902        4.831231       12.293337
 H         9.525902        4.826611       11.536571
 H        10.395995        6.388072       10.089669
 H        11.299418        5.133935       10.095333
 H        11.245033        1.186148       10.143219
 H         9.907099        1.166401       10.919661
 H        13.760565        1.183554       11.537627
 H        13.806665        1.177421       13.082248
 H        13.793961        1.165527       17.574167
 H        14.255321       14.503975       16.816690
 H        13.805683        5.130802       17.598841
 H        14.267195        6.394531       16.834036
 H         9.581537        1.478312       15.967039
 H         9.111696        2.737547       16.738754
 H         9.585345        8.765826        2.558014
 H         9.141890       10.036161        3.315402
 H        12.109639       12.106890        1.139611
 H        12.981730       10.831147        1.121247
 H        13.923982       12.310859        2.595309
 H        13.873973       12.312370        4.137687
 H        12.939131       10.828717        5.604589
 H        12.042871       12.086901        5.575981
 H         9.928124        8.492872        4.825484
 H         9.897221        8.483330        6.373329
 H         9.872867       12.315305        6.355579
 H         9.902933       12.350554        4.808106
 H        13.472201        8.741755        0.329131
 H        13.468150        8.754580        1.879478
 H        13.401909        8.712525        6.407432
 H        12.066386        8.727311        5.629699
 H         9.445532       12.092006        8.597387
 H         9.013488       10.809222        7.852524
 H         8.214950       12.131925        3.269497
 H         9.571594       12.142769        2.529902
 H        10.391389       13.668667        1.070479
 H         9.960226       12.398910        0.310145
 H         9.968105        8.501345        0.322709
 H        11.314773        8.483120        1.087799
 H        14.259148        7.259614        3.358538
 H        13.836646        8.513548        4.148794
 H        15.161439        8.391163        7.857745
 H        14.252810        7.142914        7.847892
 H        14.174935       13.710982        7.795407
 H        13.754113       12.441595        7.010690
 H         8.148687        8.696160        7.861201
 H         9.488261        8.720082        8.636373
 H         0.442397        8.806173        3.329871
 H         1.783680        8.797787        2.549085
 H         5.702976       12.129335        0.249056
 H         4.354406       12.080610        1.007473
 H         6.030385       12.326973        4.021689
 H         6.051020       12.367346        2.480247
 H         5.568276       12.085176        6.329408
 H         5.163571       10.762911        5.592999
 H         3.547196        8.537362        5.556556
 H         2.201701        8.532537        4.792023
 H         2.203710       12.327477        4.567599
 H         3.702258       12.244015        5.427888
 H         5.284388       10.010170        1.051313
 H         5.709130        8.733377        0.298779
 H         5.729799        8.761109        4.799365
 H         5.690907        8.726305        6.354591
 H         1.604261       12.122907        7.049499
 H         0.271328       12.148905        7.810642
 H         1.377011       10.846407        3.444117
 H         0.483599       12.128234        3.475141
 H         2.170888       12.303395        0.274438
 H         2.193986       12.362043        1.817887
 H         2.643784        7.211478        1.132065
 H         3.568483        8.451883        1.123402
 H         7.450743        8.523523        3.329679
 H         6.113238        8.508357        2.551754
 H         6.460689        7.165885        7.845265
 H         6.017369        8.435451        8.614428
 H         6.480182       13.672885        7.735770
 H         7.326971       12.382042        7.728893
 H         1.265055        9.982218        7.841602
 H         1.778703        8.758447        7.058067
 H         5.641899        4.907213        1.904105
 H         4.294225        4.874427        1.143702
 H         6.553972        6.415923        3.371311
 H         7.429217        5.141854        3.363962
 H         5.691032        4.840855        4.818619
 H         5.701259        4.829868        6.363492
 H         3.852187        0.999697        5.653869
 H         2.858057       13.651438        5.427143
 H         3.549365        5.143464        5.630334
 H         2.679356        6.422346        5.648378
 H         5.779224        1.536586        1.849266
 H         5.315742        2.797810        1.084001
 H         5.292336        2.725985        5.611653
 H         5.811823        1.502439        6.418433
 H         1.787454        4.874743        7.097288
 H         1.771119        4.855955        8.644298
 H         1.729725        4.894531        4.198102
 H         1.122931        3.700217        3.458339
 H         2.147850        5.099586        0.345802
 H         2.136334        5.121330        1.890141
 H         2.821457       14.455235        0.786046
 H         3.705972        1.120440        0.775975
 H         6.136322        1.152605        4.130389
 H         6.531666       14.497731        3.321938
 H         7.439147        1.167948        7.915920
 H         6.073922        1.152158        8.648224
 H         6.066758        5.063105        8.622437
 H         7.422717        5.082644        7.873853
 H         1.460420        1.628299        6.845659
 H         1.207896        2.809807        7.773386
 H         8.219025        1.452792        3.321673
 H         9.530043        1.437404        4.118508
 H        12.935594        3.557388        1.077668
 H        12.030163        4.807701        1.082727
 H        15.095819        5.201127        3.343157
 H        13.775895        5.151758        2.545860
 H        13.397352        4.816678        4.793854
 H        12.932427        3.558884        5.567885
 H         9.811831        1.099134        6.423751
 H        10.268666       14.443542        5.639722
 H        10.398115        6.376865        5.617304
 H        11.299964        5.121318        5.610569
 H        12.012623        1.436131        1.045499
 H        13.325657        1.431435        1.845191
 H        13.225984        1.421350        4.848600
 H        11.893505        1.443106        5.617776
 H         9.564218        4.820405        7.082703
 H         9.569071        4.834090        8.627709
 H         9.116766        3.562413        3.367513
 H         9.554414        4.811656        4.165400
 H        10.357327        6.392080        1.126119
 H         9.907885        5.136285        1.908614
 H         9.877087        1.173415        0.280126
 H         9.896366        1.181538        1.830955
 H        14.895507        1.262079        3.459695
 H        14.240921       14.477816        3.374443
 H        15.013504        1.236547        7.788157
 H        13.663674        1.200381        7.049383
 H        15.147460        5.076185        7.813755
 H        13.810287        5.064843        7.034120
 H         9.094320        2.716756        7.902655
 H         9.533931        1.460384        8.696057
 H         1.709684        1.449383       11.424525
 H         0.390825        1.438605       12.230559
 H         4.279357        4.791069       10.067220
 H         5.164352        3.524416       10.060369
 H         6.490863        6.377339       12.271749
 H         6.038984        5.116467       11.496095
 H         5.239279        3.506840       14.524693
 H         5.680909        4.775887       13.757807
 H         2.149052        1.197131       13.692498
 H         2.107882        1.224333       15.235744
 H         3.545417        5.066379       14.604502
 H         2.203514        5.078998       15.381173
 H         4.270113        1.409954       10.058455
 H         5.592258        1.411356       10.871902
 H         5.628802        1.401081       15.329570
 H         4.285268        1.421104       14.550481
 H         1.304654        3.561295       16.775618
 H         0.426269        4.830275       16.811096
 H         1.805333        4.783778       13.148628
 H         1.344407        3.543648       12.338756
 H         2.166244        5.118138       10.908614
 H         2.613842        6.377624       10.131273
 H         2.525208       14.489298        9.963514
 H         2.103211        1.142026        9.160387
 H         6.034929        1.155979       13.103581
 H         7.373529        1.172360       12.331487
 H         6.125511        1.203616       17.545782
 H         7.433017        1.170586       16.733593
 H         6.024096        5.115319       17.574202
 H         6.044627        5.065990       16.026091
 H         1.822821        1.445845       17.365259
 H         0.404086        1.480554       16.735010
 H         9.570666        8.765705       13.144011
 H         9.113874       10.027848       12.369143
 H        13.364422       12.107448        9.262709
 H        12.937556       10.842644       10.041323
 H        13.762899       12.414272       11.513560
 H        14.225122       13.668227       12.287969
 H        12.997110       10.816237       14.538265
 H        13.421923       12.089384       13.773546
 H         9.959517        8.446966       15.376717
 H        10.393237        7.181921       14.599712
 H        11.297099       12.360821       14.542031
 H         9.959564       12.384885       13.765872
 H        13.428484        8.736271       10.844621
 H        13.411819        8.716369        9.303181
 H        13.424540        8.710067       13.745318
 H        12.096313        8.713351       14.539267
 H         9.543808       12.133641       16.011656
 H         8.202049       12.146108       16.775488
 H         9.494119       12.123291       11.512707
 H         8.165970       12.120202       12.296674
 H        11.224878       12.400225       10.036827
 H        10.343492       13.666666       10.064447
 H        11.263265        8.502007       10.096514
 H         9.937102        8.496597       10.889205
 H        14.304909        7.181037       12.295544
 H        15.189053        8.447552       12.305553
 H        13.863914        8.492253       16.006266
 H        15.200766        8.499531       16.786753
 H        13.822451       12.375113       17.596119
 H        13.796748       12.366049       16.050045
 H         9.084824       10.032053       16.814058
 H         8.200770        8.763503       16.806534
 H         1.805673        8.742414       11.570804
 H         1.790116        8.729916       13.116512
 H         5.573007       12.151247        9.206397
 H         4.251778       12.138642       10.010698
 H         6.469779       13.672061       12.270177
 H         6.022216       12.423691       11.478917
 H         4.291914       12.156274       14.524425
 H         5.620607       12.131279       13.738162
 H         2.621689        7.174922       14.588450
 H         2.178527        8.437225       15.363346
 H         2.146392       12.444956       13.754722
 H         2.598178       13.714015       14.512140
 H         5.225044       10.032617       10.084323
 H         5.689765        8.783668       10.871338
 H         4.298574        8.758137       14.553053
 H         5.178899       10.027942       14.549501
 H         0.421714       12.132320       16.763819
 H         1.760828       12.152472       15.986917
 H         1.280530       10.843098       12.329741
 H         0.370093       12.095932       12.307748
 H         2.051458       12.352532        9.323354
 H         2.103574       12.381870       10.862696
 H         2.195303        8.469232        9.310887
 H         3.539688        8.484741       10.075994
 H         6.078074        8.488040       13.102800
 H         7.427285        8.482670       12.347603
 H         6.513030        7.188015       16.760527
 H         6.062290        8.452906       15.994903
 H         6.055305       12.424921       15.970720
 H         6.508227       13.687379       16.744038
 H         1.812073        8.780729       17.612688
 H         1.361266       10.028439       16.814827
