381
 generated by VMD
 O         9.066559        1.768857       12.350536
 O        12.975162        4.545615       10.036184
 O        14.236477        5.407894       12.303927
 O        12.957475        4.473704       14.526341
 O        10.383182        0.830667       14.559790
 O        10.377342        5.408739       14.523498
 O        12.947966        1.773415       10.093587
 O        12.962465        1.736229       14.557240
 O         9.113442        4.510015       16.777016
 O         9.061382        4.502667       12.285362
 O        10.402277        5.408036       10.055026
 O        10.354833        0.858800       10.114748
 O        14.286672        0.831564       12.319413
 O        14.286749        0.847157       16.755363
 O        14.288510        5.410692       16.758732
 O         9.104009        1.768268       16.786190
 O         9.088156        9.063939        3.339959
 O        12.938347       11.819478        1.039521
 O        14.189396       12.751973        3.305803
 O        12.936990       11.800797        5.538273
 O        10.366287        8.167902        5.609562
 O        10.349679       12.714467        5.545782
 O        12.975116        9.064325        1.091455
 O        12.955529        9.074260        5.608958
 O         9.096055       11.792559        7.812511
 O         9.071219       11.810837        3.301678
 O        10.350261       12.701602        1.060337
 O        10.399797        8.154256        1.121429
 O        14.263724        8.175245        3.354942
 O        14.235856        8.147923        7.814709
 O        14.136890       12.671119        7.831582
 O         9.080477        9.039577        7.863198
 O         1.318694        9.046371        3.361246
 O         5.216642       11.830168        1.096907
 O         6.509570       12.719259        3.329150
 O         5.332943       11.735318        5.566136
 O         2.667167        8.176350        5.627512
 O         2.703114       11.697435        5.601977
 O         5.196996        9.097953        1.062776
 O         5.287605        9.026929        5.579767
 O         1.210335       11.760727        7.971374
 O         1.227066       11.743072        3.240112
 O         2.620764       12.730178        1.068238
 O         2.614772        8.193729        1.105019
 O         6.515670        8.152539        3.282348
 O         6.499855        8.135813        7.834831
 O         6.504612       12.733477        7.877535
 O         1.307466        9.070027        7.879027
 O         1.256109        1.855529        3.191680
 O         5.236173        4.539132        1.026570
 O         6.593986        5.428916        3.250990
 O         5.333783        4.556592        5.510787
 O         2.702268        5.497684        5.384272
 O         5.235667        1.790457        1.049919
 O         5.378067        1.821263        5.526624
 O         1.164526        4.432539        8.133657
 O         1.278576        4.617356        3.167538
 O         2.652654        5.464262        0.993637
 O         2.645359        0.873924        1.047328
 O         6.566634        0.854075        3.261610
 O         6.519176        0.885215        7.842254
 O         6.498003        5.398644        7.815399
 O         0.967622        1.925801        8.499078
 O         9.157958        1.791994        3.280870
 O        12.993802        4.528028        1.067791
 O        14.198721        5.453471        3.359346
 O        13.085844        4.501499        5.668689
 O        10.362745        0.846922        5.559165
 O        10.430131        5.417022        5.592099
 O        12.965442        1.797007        1.019032
 O        12.923207        1.781584        5.512486
 O         9.104021        4.533884        7.828580
 O         9.188476        4.520476        3.335069
 O        10.417534        5.420674        1.071658
 O        10.419167        0.833984        1.047951
 O        14.207042        0.900169        3.283023
 O        14.044302        0.812167        7.764045
 O        14.379428        5.280128        7.881850
 O         9.122635        1.778957        7.838367
 O         1.342565        1.762706       12.439044
 O         5.074982        4.522264       10.058166
 O         6.456562        5.399471       12.263956
 O         5.212918        4.489971       14.527199
 O         2.615850        0.844007       14.622367
 O         2.640221        5.439347       14.519880
 O         5.202530        1.789919       10.058083
 O         5.196970        1.758701       14.574509
 O         1.343491        4.513461       16.752808
 O         1.280081        4.528583       12.304588
 O         2.549899        5.440955        9.931704
 O         2.606656        0.823961       10.222590
 O         6.487544        0.857670       12.317126
 O         6.526800        0.856059       16.762552
 O         6.531048        5.431497       16.744314
 O         1.328776        1.771316       16.810778
 O         9.075269        9.080286       12.351496
 O        12.934557       11.779252       10.102835
 O        14.294690       12.688519       12.305342
 O        12.986679       11.806992       14.547112
 O        10.412019        8.141614       14.551771
 O        10.387215       12.685451       14.549419
 O        12.955913        9.055447       10.100824
 O        12.990948        9.074797       14.561178
 O         9.070786       11.770643       16.766499
 O         9.054430       11.814219       12.314026
 O        10.357057       12.708637       10.076790
 O        10.368348        8.135118       10.126863
 O        14.257825        8.133026       12.337786
 O        14.266975        8.156362       16.804184
 O        14.279613       12.718330       16.778847
 O         9.125082        9.035334       16.806864
 O         1.338797        9.000029       12.311543
 O         5.188820       11.792279       10.077109
 O         6.466211       12.723073       12.317440
 O         5.182143       11.805224       14.552385
 O         2.625044        8.166523       14.574393
 O         2.584447       12.691998       14.594027
 O         5.194978        9.030449       10.049198
 O         5.209066        9.070107       14.564317
 O         1.313723       11.796645       16.825459
 O         1.343961       11.759426       12.354388
 O         2.613980       12.733524       10.154099
 O         2.571031        8.083313       10.045319
 O         6.487028        8.150868       12.304339
 O         6.528267        8.170806       16.771004
 O         6.516065       12.725932       16.782953
 O         1.326930        9.055762       16.807377
 H         8.162440        1.436262       12.364711
 H         9.504188        1.430562       13.139299
 H        13.390402        4.859833       10.848425
 H        12.061805        4.862186       10.051001
 H        14.222709        6.371618       12.347806
 H        13.779699        5.087086       13.091484
 H        12.042915        4.776492       14.532314
 H        12.933219        3.510711       14.541645
 H        10.401322       14.469778       14.560478
 H        11.300936        1.123574       14.556998
 H         9.911480        5.120095       13.732057
 H        10.382867        6.372270       14.509518
 H        12.956619        2.733465       10.053493
 H        13.304612        1.455969        9.258176
 H        13.431661        1.406299       13.785344
 H        13.443977        1.414498       15.329394
 H         8.208185        4.838985       16.756227
 H         9.542232        4.841935       15.981113
 H         9.531480        4.784765       11.494761
 H         9.076612        3.539259       12.292014
 H         9.935109        5.127496        9.259302
 H        10.373096        6.371625       10.068933
 H        11.255549        1.192551       10.151059
 H         9.910649        1.174387       10.909494
 H        13.858972        1.171682       11.528250
 H        15.183927        1.178329       12.333354
 H        15.200012        1.153248       16.785114
 H        14.313355       14.485910       16.770630
 H        15.196286        5.088001       16.733694
 H        13.846202        5.071422       15.975101
 H         9.114452        2.731332       16.766773
 H         9.560389        1.467029       15.993499
 H         9.505431        8.746705        4.146685
 H         8.182249        8.734014        3.342805
 H        12.017913       12.104279        1.042756
 H        12.930705       10.857316        1.059431
 H        13.744677       12.455588        2.505766
 H        14.198396       13.714365        3.281156
 H        12.032578       12.131764        5.517647
 H        13.374250       12.144077        4.749712
 H         9.910402        8.451285        6.409577
 H        10.374713        7.205925        5.620607
 H         9.875113       12.389155        4.772315
 H         9.891647       12.372552        6.320562
 H        13.413446        8.758915        1.892113
 H        12.071267        8.731801        1.126335
 H        12.037984        8.780455        5.597915
 H        12.935624       10.038326        5.580685
 H         9.550815       12.094944        8.604859
 H         9.093899       10.830835        7.846915
 H         8.153687       12.111256        3.313068
 H         9.051305       10.848487        3.312120
 H         9.880409       12.381842        1.839252
 H         9.878122       12.364678        0.291826
 H         9.932792        8.452584        1.909992
 H        10.385488        7.191215        1.133096
 H        13.831515        8.510125        4.146173
 H        15.177979        8.482315        3.381445
 H        14.247240        7.194228        7.780620
 H        13.775429        8.455481        7.022297
 H        14.091241       13.629567        7.784054
 H        13.726359       12.349629        7.020475
 H         8.173425        8.714205        7.877176
 H         9.506144        8.716742        8.662999
 H         1.297376       10.011930        3.336052
 H         1.797065        8.797421        4.156978
 H         5.688487       12.167504        0.329612
 H         5.679511       12.155511        1.878103
 H         6.502704       13.682236        3.338867
 H         6.060657       12.423035        4.131092
 H         4.369921       11.848169        5.600443
 H         5.696273       12.115726        6.368684
 H         3.565040        8.526398        5.622479
 H         2.228425        8.546855        6.397650
 H         2.170589       11.859330        4.825313
 H         2.160079       11.857727        6.369238
 H         5.219903       10.061811        1.055315
 H         5.658802        8.800658        0.273156
 H         5.713305        8.722094        4.772325
 H         5.340397        9.991564        5.567439
 H         1.666187       12.145001        8.723461
 H         0.321491       12.123096        7.946323
 H         1.697378       12.125542        2.494711
 H         0.347671       12.128911        3.251572
 H         3.535530       12.431776        1.096489
 H         2.647607       13.692831        1.079649
 H         3.516720        8.531870        1.117651
 H         2.186254        8.498566        1.912806
 H         6.048982        8.464580        2.500371
 H         6.525757        7.189855        3.240023
 H         6.491044        7.173457        7.809012
 H         6.072845        8.436833        7.021964
 H         7.418225       12.433688        7.853963
 H         6.525514       13.695438        7.856251
 H         0.396022        8.769048        7.842337
 H         1.270338       10.035486        7.911723
 H         1.274531        2.819354        3.192452
 H         1.757589        1.605893        3.974010
 H         4.333364        4.873548        1.057755
 H         5.683709        4.853509        1.818525
 H         6.167676        5.106814        4.052669
 H         7.500135        5.105220        3.278554
 H         4.419393        4.837451        5.430518
 H         5.324446        3.591443        5.494574
 H         2.290412        5.084374        6.129949
 H         2.667310        6.455936        5.526334
 H         5.238326        2.752404        1.026688
 H         5.687829        1.488920        0.256182
 H         4.442934        1.602570        5.471422
 H         5.771788        1.461416        4.721274
 H         0.209923        4.795674        8.040201
 H         1.725536        4.879605        8.862270
 H         1.759764        4.919538        3.941154
 H         0.374476        4.935258        3.255204
 H         2.157112        5.162110        1.764193
 H         2.638565        6.426747        1.032683
 H         2.196206        1.212239        1.829986
 H         3.550466        1.200544        1.086663
 H         6.105899        1.196127        2.488462
 H         7.465806        1.192983        3.227436
 H         7.424853        1.210296        7.830326
 H         6.111226        1.194249        7.025438
 H         6.054372        5.081649        7.018546
 H         5.995925        5.071813        8.564995
 H         1.141396        3.456416        8.262109
 H         1.595680        1.474373        9.102240
 H         9.629818        1.439715        2.518986
 H         9.589915        1.444575        4.067334
 H        12.995789        3.564385        1.042306
 H        13.462034        4.821925        0.279596
 H        13.760625        5.146664        2.558524
 H        14.193136        6.417051        3.331718
 H        13.035997        3.540807        5.589477
 H        13.487047        4.822156        4.850924
 H         9.916951        1.152633        6.355354
 H        10.338643       14.485608        5.578081
 H        10.020800        5.085019        4.783556
 H        11.334207        5.095186        5.599844
 H        12.067434        1.446859        1.002450
 H        13.412326        1.451541        0.239385
 H        13.363564        1.458866        4.715556
 H        12.018106        1.449095        5.491917
 H         9.534080        4.854031        7.028958
 H         8.192916        4.844987        7.805357
 H         9.631873        4.820431        2.533846
 H         9.184812        3.556997        3.299918
 H        11.325174        5.097793        1.039634
 H         9.975598        5.093889        0.281023
 H         9.940898        1.144302        0.271414
 H        10.381479       14.473425        1.033400
 H        15.113267        1.227187        3.269325
 H        13.788924        1.226753        2.479087
 H        13.669827        1.152013        6.939752
 H        14.940168        1.120533        7.811242
 H        13.825125        5.028239        8.640291
 H        13.929269        4.973709        7.073940
 H         9.130742        2.740766        7.855334
 H         9.561386        1.481564        8.641591
 H         1.350366        2.722913       12.441832
 H         1.788485        1.468571       13.245112
 H         5.556069        4.823017       10.838410
 H         5.124685        3.558710       10.065975
 H         6.039405        5.069717       13.067978
 H         7.363749        5.076721       12.273517
 H         4.301273        4.798588       14.528316
 H         5.183571        3.526958       14.549376
 H         2.187293        1.181137       15.419738
 H         3.524660        1.163664       14.634594
 H         2.629828        6.403265       14.527319
 H         2.159057        5.160222       13.737176
 H         4.315442        1.423669       10.062185
 H         5.639128        1.467778        9.259569
 H         5.687808        1.432549       15.338801
 H         5.654222        1.431784       13.793393
 H         1.815194        4.863593       17.518766
 H         1.813240        4.835503       15.977602
 H         0.369566        4.849209       12.297986
 H         1.698118        4.861358       11.512148
 H         2.575517        6.415471        9.965804
 H         3.467819        5.121190        9.965782
 H         2.608057       14.458344       10.211132
 H         2.216442        1.100608       11.060195
 H         6.464370       14.496560       12.290852
 H         6.044637        1.166798       11.521103
 H         6.546572       14.494872       16.779879
 H         7.442003        1.155661       16.773146
 H         6.059375        5.094059       15.976191
 H         6.059222        5.108710       17.521067
 H         1.343108        2.734173       16.820122
 H         1.801561        1.476239       17.600452
 H         8.163981        8.769528       12.339324
 H         9.038806       10.043241       12.338034
 H        13.373790       12.105048        9.308262
 H        13.435266       12.107430       10.856983
 H        15.207663       12.382274       12.318358
 H        14.320710       13.650475       12.307084
 H        13.452997       12.143679       15.320927
 H        13.461737       12.130976       13.774997
 H        11.312601        8.481828       14.529757
 H         9.958544        8.493725       13.778499
 H         9.946607       12.369311       13.753746
 H        11.292899       12.359299       14.522150
 H        13.401361        8.760594        9.302107
 H        12.962537       10.019797       10.081685
 H        13.006189       10.038327       14.582608
 H        13.441794        8.771961       15.357396
 H         9.100931       10.807845       16.760487
 H         9.544943       12.068562       15.982912
 H         9.483082       12.140143       11.515371
 H         8.151117       12.148759       12.302958
 H        11.271053       12.406126       10.099412
 H        10.382253       13.670687       10.084275
 H        11.270153        8.471648       10.136616
 H         9.933553        8.475450       10.916268
 H        13.800162        8.479740       13.112884
 H        13.790973        8.470023       11.565894
 H        14.257940        7.193710       16.810722
 H        13.805934        8.447580       17.598999
 H        13.822112       12.396010       17.563654
 H        15.180010       12.376709       16.822512
 H         9.600945        8.701714       16.039639
 H         9.589933        8.718510       17.588974
 H         1.773369        8.692579       13.115280
 H         0.428195        8.690190       12.348927
 H         5.202175       10.831616       10.037735
 H         5.651766       12.109665        9.292205
 H         5.996208       12.395203       13.092335
 H         6.004461       12.377238       11.545876
 H         5.169289       10.842223       14.559349
 H         4.264755       12.096423       14.577092
 H         3.530282        8.496163       14.595580
 H         2.187703        8.490063       15.370747
 H         2.583577       13.654092       14.617678
 H         2.135232       12.395075       15.394763
 H         5.634639        8.706396        9.253629
 H         4.294252        8.700414       10.020993
 H         5.696435        8.747329       15.331620
 H         5.667787        8.740078       13.785371
 H         1.329693       10.834059       16.845856
 H         1.782678       12.104174       17.611614
 H         1.780674       12.056851       13.161206
 H         1.353149       10.797424       12.363619
 H         2.202626       12.366065       10.944439
 H         3.513892       12.390497       10.122546
 H         2.107562        8.467364        9.287670
 H         2.132214        8.413303       10.838518
 H         6.033745        8.450045       11.509100
 H         6.472239        7.188713       12.280259
 H         7.447536        8.457660       16.789755
 H         6.542097        7.207532       16.768419
 H         7.411233       12.370639       16.754507
 H         6.063270       12.396830       16.000387
 H         0.421538        8.728611       16.827522
 H         1.756529        8.737168       17.609854
