381
 generated by VMD
 O         9.073897        1.772593       12.333804
 O        12.941940        4.521006       10.105994
 O        14.248713        5.450016       12.332623
 O        12.946239        4.485668       14.530825
 O        10.395603        0.819445       14.539190
 O        10.386868        5.442993       14.570051
 O        12.921762        1.792406       10.085678
 O        12.979566        1.753388       14.554080
 O         9.076713        4.492342       16.775341
 O         9.097540        4.514683       12.339854
 O        10.376493        5.446547       10.103590
 O        10.339537        0.877207       10.074422
 O        14.265021        0.889414       12.294292
 O        14.274014        0.867609       16.812885
 O        14.250719        5.372268       16.761192
 O         9.108963        1.746432       16.769150
 O         9.113259        9.061096        3.323079
 O        12.959339       11.789049        1.107329
 O        14.226301       12.678032        3.345875
 O        12.954150       11.817604        5.597959
 O        10.396270        8.156323        5.569337
 O        10.372521       12.719776        5.607098
 O        12.944678        9.056679        1.057360
 O        12.980921        9.071399        5.581277
 O         9.068200       11.818590        7.834291
 O         9.117093       11.798304        3.349669
 O        10.378888       12.718733        1.097659
 O        10.364138        8.141694        1.066845
 O        14.244512        8.178903        3.318412
 O        14.269573        8.195665        7.825344
 O        14.245481       12.739144        7.836688
 O         9.119081        9.071160        7.819139
 O         1.305809        9.101053        3.179045
 O         5.233849       11.794473        1.074395
 O         6.524082       12.671564        3.319038
 O         5.154611       11.836274        5.551931
 O         2.550648        8.617989        5.658570
 O         2.658575       12.811478        5.599181
 O         5.229855        9.070745        1.045293
 O         5.296231        9.150477        5.588759
 O         1.346083       11.987698        7.790978
 O         1.296547       11.879913        3.280022
 O         2.637890       12.703004        1.028429
 O         2.647940        8.159048        1.022529
 O         6.520624        8.169503        3.320481
 O         6.521848        8.146678        7.839712
 O         6.460015       12.707575        7.828679
 O         1.279145        9.171444        7.879239
 O         1.525024        1.581884        3.401934
 O         5.224316        4.502894        1.107825
 O         6.492050        5.433011        3.346019
 O         5.308513        4.387384        5.626291
 O         2.809903        0.698393        5.414887
 O         5.248658        1.769118        1.104808
 O         5.160897        1.464642        5.539678
 O         1.235717        4.478265        8.048106
 O         0.965200        4.202340        2.788658
 O         2.629714        5.409225        0.955963
 O         2.689120        0.821513        1.111120
 O         6.535413        0.784232        3.351519
 O         6.459864        0.848647        7.812248
 O         6.583630        5.405228        7.880402
 O         1.179965        1.687284        8.001933
 O         9.075631        1.763429        3.326082
 O        12.903578        4.502296        1.079444
 O        14.156172        5.444022        3.317415
 O        12.964509        4.513717        5.601556
 O        10.329651        0.855055        5.586293
 O        10.387607        5.412979        5.576722
 O        12.981874        1.772067        1.116626
 O        12.916908        1.754335        5.580033
 O         9.161258        4.485374        7.847569
 O         9.075495        4.499123        3.326671
 O        10.334215        5.410170        1.070257
 O        10.382995        0.865009        1.087233
 O        14.293541        0.780535        3.367082
 O        14.149023        0.859833        7.847239
 O        14.207644        5.442614        7.845428
 O         9.036936        1.759683        7.830262
 O         1.318041        1.792139       12.345228
 O         5.232244        4.520756       10.105845
 O         6.523902        5.437258       12.352928
 O         5.188342        4.501250       14.570937
 O         2.603708        0.825484       14.562258
 O         2.618220        5.460173       14.493345
 O         5.207572        1.786486       10.055342
 O         5.181952        1.759120       14.535363
 O         1.335298        4.505918       16.678312
 O         1.292321        4.538248       12.319094
 O         2.642986        5.456682       10.169456
 O         2.631564        0.842683       10.151320
 O         6.487683        0.857022       12.299625
 O         6.504391        0.878553       16.767694
 O         6.506548        5.388410       16.787403
 O         1.338405        1.771429       16.814104
 O         9.074163        9.072135       12.312633
 O        12.941600       11.827857       10.063677
 O        14.264650       12.749042       12.286553
 O        12.993761       11.809813       14.523359
 O        10.386377        8.181992       14.551731
 O        10.398559       12.690889       14.530087
 O        12.966822        9.083483       10.052377
 O        12.971673        9.064423       14.524440
 O         9.108374       11.826588       16.786844
 O         9.063562       11.809179       12.315501
 O        10.347955       12.735964       10.077556
 O        10.378538        8.175838       10.074288
 O        14.267903        8.191409       12.290073
 O        14.255189        8.122587       16.769289
 O        14.255765       12.720838       16.797987
 O         9.100300        9.081267       16.782549
 O         1.319920        9.092549       12.282490
 O         5.195062       11.766891       10.085690
 O         6.474029       12.714239       12.310250
 O         5.197958       11.807789       14.567468
 O         2.636102        8.197991       14.516304
 O         2.613323       12.694453       14.553354
 O         5.196192        9.044939       10.058257
 O         5.234343        9.078288       14.555274
 O         1.305697       11.783621       16.778965
 O         1.310020       11.821254       12.307328
 O         2.625584       12.724516       10.098002
 O         2.603835        8.196183       10.059406
 O         6.493985        8.165732       12.299221
 O         6.533923        8.128860       16.765949
 O         6.527431       12.741027       16.786039
 O         1.310448        9.059099       16.762423
 H         8.168705        1.443757       12.346850
 H         9.513753        1.419900       13.114358
 H        12.039664        4.858391       10.131405
 H        13.386780        4.860440       10.889793
 H        15.162422        5.143445       12.317214
 H        14.279955        6.412477       12.319947
 H        12.047416        4.832131       14.520436
 H        13.389959        4.834041       13.748998
 H        11.308328        1.126565       14.537591
 H        10.426427       14.458397       14.530291
 H        10.374091        6.406022       14.586272
 H         9.923052        5.140088       15.357847
 H        13.398525        1.488175       10.865762
 H        12.939623        2.756348       10.111349
 H        12.974014        2.716981       14.563066
 H        13.437123        1.468914       15.351478
 H         9.072915        3.529471       16.765162
 H         8.154858        4.774354       16.771000
 H         9.106340        3.551908       12.356854
 H         9.558893        4.814280       13.130250
 H        10.357169        6.409920       10.116669
 H         9.912212        5.142616       10.890589
 H         9.906371        1.206550       10.869390
 H        11.243840        1.208278       10.097537
 H        13.831350        1.199237       13.096518
 H        15.168963        1.222119       12.323115
 H        15.179683        1.192524       16.835211
 H        13.841477        1.201740       17.605179
 H        13.776218        5.055622       17.535444
 H        13.773703        5.045314       15.990201
 H         9.543546        1.405406       15.979605
 H         8.201081        1.426555       16.747536
 H         9.131394       10.022944        3.357774
 H         9.567204        8.748950        4.113687
 H        12.933400       10.825640        1.080827
 H        12.045072       12.091800        1.097069
 H        13.760532       12.350170        4.124329
 H        13.761253       12.339590        2.571057
 H        13.395452       12.149504        6.387347
 H        12.049035       12.146503        5.628665
 H        10.409006        7.193219        5.572836
 H        11.314700        8.446624        5.575717
 H        10.343703       13.682377        5.621640
 H         9.904803       12.418618        6.394268
 H        13.388738        8.717097        0.273503
 H        12.043404        8.716931        1.035831
 H        12.977518       10.033089        5.612243
 H        13.448887        8.772806        6.370058
 H         9.495275       12.146773        8.633187
 H         8.158720       12.132030        7.854502
 H         9.584376       12.134972        2.577756
 H         9.574285       12.134318        4.128066
 H        10.372083       13.681168        1.073378
 H         9.926366       12.421402        0.300275
 H         9.897321        8.491327        0.299893
 H         9.909618        8.472888        1.849122
 H        13.759802        8.499620        2.551466
 H        13.794456        8.515915        4.100481
 H        15.185494        8.500893        7.837355
 H        14.289379        7.233295        7.832980
 H        13.788704       12.419489        8.622810
 H        14.185914       13.700406        7.861649
 H         9.110593       10.033054        7.797283
 H         9.569265        8.774906        7.021163
 H         0.397606        8.790011        3.240354
 H         1.271057       10.059236        3.197396
 H         4.317112       12.086526        1.060695
 H         5.214066       10.830047        1.056085
 H         7.427777       12.336618        3.313748
 H         6.094089       12.341838        2.521970
 H         5.638263       12.116995        4.767824
 H         5.206824       10.869050        5.565868
 H         2.172171        8.719706        4.788856
 H         3.496057        8.733596        5.587293
 H         3.541270       12.405034        5.593013
 H         2.198762       12.504315        6.398907
 H         4.326662        8.735460        1.028080
 H         5.667095        8.729442        0.258341
 H         5.724094        8.768975        6.361563
 H         5.732406        8.782837        4.815252
 H         1.766760       12.267590        8.611320
 H         0.427240       12.274548        7.830924
 H         1.724218       12.162019        4.087488
 H         0.379384       12.173501        3.328994
 H         2.161644       12.370449        0.258262
 H         2.151738       12.402189        1.802425
 H         2.636283        7.198207        1.046710
 H         2.174643        8.466484        1.806040
 H         6.085284        8.491267        2.525840
 H         7.426475        8.494486        3.296274
 H         6.547027        7.183562        7.840904
 H         7.435965        8.445812        7.841049
 H         6.452971       13.670086        7.822751
 H         6.006935       12.422902        7.029428
 H         1.744468        8.928820        7.059751
 H         1.281765       10.129401        7.883796
 H         2.330071        1.070642        4.623201
 H         1.936737        1.310663        2.564737
 H         4.321333        4.833143        1.100288
 H         5.644788        4.854446        1.901280
 H         6.045518        5.118991        4.137613
 H         6.480595        6.396152        3.376403
 H         5.254974        3.432374        5.607769
 H         4.397069        4.657693        5.794156
 H         3.782845        1.023887        5.466351
 H         2.747272       14.288857        5.476577
 H         5.249593        2.732996        1.139452
 H         5.708728        1.459357        1.890272
 H         5.702346        1.204544        4.777693
 H         5.639556        1.237161        6.352357
 H         1.808803        4.674721        7.297664
 H         1.211618        3.517913        8.074319
 H         0.135288        4.654776        3.003846
 H         1.395659        2.526125        3.338720
 H         2.087356        5.035245        1.645128
 H         2.209936        5.122975        0.136433
 H         3.604821        1.123747        1.096350
 H         2.703142       14.460866        1.047559
 H         6.577940       14.423033        3.310884
 H         7.443578        1.110346        3.341151
 H         6.016514        1.202781        8.593330
 H         7.362164        1.189273        7.830699
 H         7.487720        5.075247        7.860254
 H         6.146694        5.038478        7.107088
 H         0.271165        1.372727        7.900478
 H         1.625933        1.540648        7.177503
 H         9.078315        2.727636        3.306541
 H         9.540796        1.470255        2.535115
 H        13.305520        4.866440        1.874627
 H        11.994120        4.822684        1.070349
 H        13.745695        5.147311        4.136505
 H        14.194823        6.406628        3.348957
 H        12.972693        3.552663        5.620967
 H        13.415419        4.815598        6.399426
 H         9.863349        1.189389        6.360434
 H         9.864507        1.186512        4.811026
 H        11.290693        5.078044        5.555965
 H         9.947374        5.083797        4.786763
 H        13.435949        1.470789        1.907411
 H        12.966274        2.735835        1.143583
 H        13.369054        1.404542        4.808609
 H        12.009310        1.432037        5.549419
 H         9.615106        4.824925        7.069312
 H         9.615916        4.835395        8.621087
 H         8.173615        4.837971        3.323388
 H         9.497442        4.835394        2.528660
 H        10.331391        6.373449        1.043722
 H         9.878272        5.106137        0.277634
 H        11.289099        1.187975        1.072416
 H         9.956848        1.186829        0.285094
 H        15.220286        1.011437        3.383985
 H        14.259495       14.417478        3.350960
 H        13.692227        1.209743        8.622094
 H        13.689583        1.192816        7.068961
 H        13.770326        5.124969        8.642092
 H        15.112194        5.114308        7.888957
 H         9.498062        1.451616        8.618314
 H         9.084493        2.722663        7.850932
 H         1.774681        1.452042       13.121552
 H         1.795668        1.450566       11.580878
 H         5.704529        4.849614       10.876560
 H         5.701776        4.846891        9.330851
 H         7.426558        5.102172       12.376358
 H         6.078883        5.099030       13.136024
 H         4.279303        4.817182       14.533295
 H         5.152808        3.539245       14.549735
 H         2.158261        1.124990       15.360483
 H         2.589859       14.464187       14.578042
 H         2.617936        6.423263       14.477775
 H         2.150077        5.162628       13.703634
 H         4.290703        1.493597       10.076566
 H         5.191208        2.750958       10.065989
 H         5.619506        1.437037       13.739683
 H         4.283422        1.413171       14.518360
 H         0.426789        4.822986       16.682253
 H         1.756251        4.854289       15.882649
 H         1.315750        3.575865       12.309788
 H         1.782891        4.837615       11.542484
 H         3.548506        5.133782       10.114163
 H         2.181658        5.104856        9.400086
 H         2.121667        1.118732        9.384445
 H         2.636947       14.480936       10.137954
 H         6.040724        1.167101       11.504144
 H         6.470270       14.496616       12.272429
 H         6.020926        1.201714       15.999218
 H         6.054642        1.217751       17.547535
 H         6.045544        5.070816       17.570566
 H         6.017863        5.064548       16.021980
 H         1.361504        2.734447       16.785988
 H         1.813185        1.495033       17.601650
 H         9.510146        8.751464       11.515824
 H         8.170613        8.737299       12.288931
 H        13.382061       12.158698       10.853601
 H        12.035938       12.154019       10.089803
 H        15.178371       12.443668       12.286123
 H        14.292297       13.711817       12.282235
 H        13.448943       12.142982       15.302940
 H        13.462532       12.155328       13.755724
 H         9.943703        8.502299       13.758275
 H        11.293462        8.506017       14.517349
 H        11.302530       12.359602       14.502554
 H         9.951721       12.363361       13.741545
 H        13.428222        8.787589        9.258775
 H        12.967460       10.045740       10.033524
 H        12.995558       10.026890       14.514615
 H        13.433595        8.772496       13.730002
 H         8.205868       12.161958       16.760588
 H         9.547127       12.141956       15.989163
 H         9.040042       10.845788       12.308665
 H         8.147715       12.107817       12.319864
 H        10.335080       13.698780       10.099952
 H         9.892408       12.431910       10.869959
 H        11.285840        8.498929       10.053503
 H         9.953591        8.499387        9.272105
 H        13.833129        8.511776       11.492046
 H        15.174037        8.517920       12.265139
 H        14.238897        7.160345       16.744076
 H        13.803843        8.428967       15.975686
 H        14.250933       13.683157       16.825735
 H        13.797318       12.417672       17.588011
 H         9.105303       10.044106       16.765203
 H         9.564216        8.789195       15.989487
 H         1.787966        8.764781       11.504525
 H         1.797509        8.766766       13.052135
 H         5.640574       12.073957        9.290204
 H         5.209068       10.802491       10.055969
 H         6.010581       12.365790       11.540508
 H         6.005123       12.392654       13.087185
 H         5.232230       10.844645       14.585609
 H         5.670526       12.117744       15.346626
 H         2.190082        8.516127       15.307888
 H         3.541743        8.523520       14.552397
 H         3.520981       12.371662       14.580649
 H         2.173017       12.355242       15.339638
 H         5.636544        8.711156        9.268539
 H         4.284149        8.733252       10.024025
 H         5.689552        8.753242       13.770473
 H         5.708233        8.726123       15.316391
 H         1.275236       10.819816       16.773966
 H         0.393703       12.092543       16.783752
 H         1.316586       10.856986       12.315931
 H         1.770908       12.107235       13.103219
 H         3.520151       12.367272       10.108745
 H         2.179645       12.386212       10.882879
 H         2.140021        8.499234        9.269380
 H         2.596741        7.233073       10.046156
 H         6.486569        7.202198       12.295837
 H         6.027102        8.451102       11.505615
 H         7.446702        8.435959       16.772438
 H         6.557674        7.166258       16.776541
 H         6.503121       13.703677       16.803152
 H         6.073010       12.435124       17.577662
 H         1.758145        8.728364       17.549562
 H         0.413689        8.709126       16.782286
