381
 generated by VMD
 O         9.098683        1.766160       12.318909
 O        12.942735        4.483058       10.091943
 O        14.262694        5.408919       12.318754
 O        12.939322        4.490341       14.546168
 O        10.395840        0.834830       14.535151
 O        10.366159        5.415191       14.513744
 O        12.981888        1.750069       10.104408
 O        12.975348        1.743887       14.549293
 O         9.114404        4.507426       16.774609
 O         9.041542        4.499716       12.306762
 O        10.361874        5.416408       10.072529
 O        10.401294        0.853953       10.080306
 O        14.279008        0.828572       12.338702
 O        14.289774        0.845331       16.794495
 O        14.262311        5.415216       16.752033
 O         9.083737        1.764925       16.757555
 O         9.083245        9.053328        3.296819
 O        12.940480       11.791623        1.056728
 O        14.197836       12.687411        3.334608
 O        12.970256       11.807034        5.590133
 O        10.402277        8.151471        5.527843
 O        10.395267       12.691798        5.581469
 O        12.970167        9.042010        1.060555
 O        13.009162        9.056471        5.547301
 O         9.071487       11.808156        7.809228
 O         9.112006       11.796636        3.337471
 O        10.375918       12.716888        1.100884
 O        10.384044        8.177511        1.055345
 O        14.274868        8.111811        3.281580
 O        14.257294        8.136220        7.817579
 O        14.276010       12.749112        7.818209
 O         9.114708        9.072275        7.776618
 O         1.304072        9.051118        3.283821
 O         5.163851       11.785144        1.068181
 O         6.536118       12.631653        3.319203
 O         5.201260       11.790830        5.590278
 O         2.584649        8.170212        5.552021
 O         2.516569       12.640385        5.549719
 O         5.182036        9.048624        1.098593
 O         5.187246        9.044411        5.588580
 O         1.317217       11.768933        7.841462
 O         1.259012       11.759976        3.284860
 O         2.563666       12.816643        1.123680
 O         2.601517        8.083529        1.099955
 O         6.487005        8.168915        3.329092
 O         6.511688        8.202761        7.838329
 O         6.488888       12.703392        7.830567
 O         1.310240        9.037034        7.831114
 O         1.586231        1.806978        3.261831
 O         5.161303        4.471148        1.038120
 O         6.473292        5.440510        3.282165
 O         5.201791        4.702110        5.594698
 O         2.153729        0.651823        5.449061
 O         2.468618        5.439301        5.509010
 O         5.151000        1.727999        1.003736
 O         1.266397        4.598225        7.837019
 O         1.479313        4.279605        3.326145
 O         2.603185        5.314715        1.129095
 O         2.696385        0.896475        1.274480
 O         6.574490        0.806881        2.959641
 O         6.576952        0.839469        7.992172
 O         6.504762        5.496143        7.913792
 O         1.393146        1.843752        7.972141
 O         9.153540        1.824557        3.321500
 O        12.990556        4.517209        1.054513
 O        14.299970        5.335100        3.293909
 O        12.922255        4.499374        5.564444
 O        10.435802        0.838795        5.562491
 O        10.362370        5.414418        5.526730
 O        12.970952        1.794461        1.041951
 O        13.058155        1.770530        5.607367
 O         9.087437        4.538777        7.789730
 O         9.070383        4.540248        3.285070
 O        10.422009        5.433856        1.078273
 O        10.384145        0.842920        1.041891
 O        14.195238        0.887533        3.351865
 O        14.322222        0.915355        7.874504
 O        14.178144        5.404416        7.838425
 O         9.169653        1.782252        7.834259
 O         1.316290        1.780397       12.397040
 O         5.166583        4.507399       10.122584
 O         6.457283        5.418908       12.327501
 O         5.203020        4.518812       14.567494
 O         2.635637        0.858564       14.611454
 O         2.597896        5.422086       14.591263
 O         5.200195        1.756088       10.212023
 O         5.192042        1.787601       14.590810
 O         1.307414        4.501932       16.804035
 O         1.325526        4.522007       12.346762
 O         2.570435        5.456047       10.104021
 O         2.623773        0.865476       10.173298
 O         6.529736        0.822921       12.409863
 O         6.511953        0.841759       16.758200
 O         6.515905        5.398308       16.799673
 O         1.345014        1.791590       16.875584
 O         9.102428        9.048003       12.266725
 O        12.973946       11.806383       10.065566
 O        14.275414       12.696040       12.306569
 O        12.984894       11.796798       14.549001
 O        10.393975        8.149718       14.521226
 O        10.387028       12.687069       14.552109
 O        12.961287        9.065445       10.052002
 O        12.974135        9.063892       14.551188
 O         9.088602       11.813435       16.805046
 O         9.088074       11.788980       12.306216
 O        10.365930       12.714282       10.066949
 O        10.385405        8.146938       10.020372
 O        14.252106        8.151624       12.297072
 O        14.294376        8.146802       16.781021
 O        14.278407       12.706571       16.786533
 O         9.086059        9.074192       16.757900
 O         1.322187        9.040467       12.329296
 O         5.181200       11.821593       10.079876
 O         6.495681       12.696456       12.323552
 O         5.201973       11.781309       14.553228
 O         2.621832        8.168094       14.571585
 O         2.629090       12.709486       14.577291
 O         5.211438        9.096558       10.061936
 O         5.216778        9.038910       14.537897
 O         1.345192       11.823484       16.825016
 O         1.318083       11.777259       12.343929
 O         2.583760       12.717497       10.088362
 O         2.632786        8.195845       10.087273
 O         6.502726        8.164069       12.287463
 O         6.496964        8.146152       16.801226
 O         6.490958       12.710407       16.795189
 O         1.354855        9.057895       16.815775
 H         9.554320        1.439609       11.535372
 H         9.582861        1.430887       13.080884
 H        13.410976        4.793679       10.873822
 H        12.966130        3.520298       10.119497
 H        13.793515        5.109956       13.104323
 H        14.241437        6.371742       12.330665
 H        12.927540        3.527518       14.545983
 H        12.021481        4.783626       14.529703
 H        11.314311        1.124291       14.545780
 H        10.408154       14.473970       14.543204
 H         9.891137        5.116310       13.729837
 H        10.367441        6.378197       14.490710
 H        13.413131        1.413262       10.896546
 H        12.076305        1.418092       10.113821
 H        13.451806        1.420943       15.319867
 H        13.445173        1.411308       13.775781
 H         9.586927        4.837671       17.545382
 H         9.571882        4.846446       15.997493
 H         9.031345        3.536433       12.309440
 H         8.123830        4.792150       12.305693
 H        11.261048        5.074730       10.106080
 H         9.909636        5.086056       10.855541
 H        10.368261       14.494270       10.050795
 H         9.967021        1.172478        9.279884
 H        15.190500        1.139686       12.348497
 H        14.309246       14.467719       12.320847
 H        15.190335        1.178968       16.832359
 H        13.837334        1.190521       17.571817
 H        14.262136        6.378721       16.732269
 H        13.792634        5.114975       15.965380
 H         9.100236        2.727749       16.744364
 H         9.545558        1.465591       15.967317
 H         8.175977        8.731208        3.333226
 H         9.527206        8.723814        4.085354
 H        12.033750       12.121216        1.076868
 H        13.359353       12.107731        1.862628
 H        14.178645       13.645543        3.352869
 H        13.754174       12.390997        4.139742
 H        13.405403       12.149685        6.377792
 H        12.056028       12.115292        5.616060
 H        11.319373        8.440374        5.531290
 H        10.410995        7.188004        5.535005
 H         9.926169       12.367965        4.804070
 H         9.905485       12.381172        6.350885
 H        12.051481        8.747773        1.056258
 H        12.944474       10.004629        1.061120
 H        13.460423        8.765265        4.750068
 H        13.011789       10.018940        5.541275
 H         8.163244       12.131071        7.833843
 H         9.503735       12.134921        8.604518
 H         9.092548       10.834080        3.321574
 H         8.190390       12.084439        3.335252
 H        10.362296       13.680489        1.107622
 H         9.922215       12.420981        1.898773
 H         9.910458        8.500069        0.280874
 H         9.907379        8.500049        1.828748
 H        13.805512        8.405586        2.492663
 H        14.271626        7.151389        3.271066
 H        14.214054        7.173690        7.810378
 H        13.813547        8.439388        7.018953
 H        14.319429       13.709846        7.841033
 H        15.183737       12.428568        7.832396
 H         9.115141       10.035516        7.765316
 H         9.566654        8.779887        6.979031
 H         1.748560        8.697297        2.504900
 H         0.406555        8.701062        3.270647
 H         4.259973       12.105022        1.093312
 H         5.127024       10.822317        1.071885
 H         6.053542       12.350146        4.101241
 H         6.044922       12.317797        2.556170
 H         5.637273       12.142701        6.375222
 H         4.303205       12.123185        5.602177
 H         2.168724        8.510545        4.754336
 H         3.498207        8.477880        5.550048
 H         2.092121       12.294199        6.344271
 H         2.066007       12.258498        4.788880
 H         4.290157        8.690031        1.123884
 H         5.627177        8.741562        1.897451
 H         5.205982       10.006838        5.612026
 H         5.648824        8.745170        6.380202
 H         1.319525       10.805754        7.873933
 H         1.774385       12.079759        8.630624
 H         0.341183       12.048779        3.296056
 H         1.251292       10.794859        3.259882
 H         2.123185       12.485131        0.331610
 H         2.098035       12.430309        1.874182
 H         2.164080        8.391084        0.297961
 H         2.587473        7.122727        1.083708
 H         6.035405        8.452907        4.131079
 H         6.470696        7.204630        3.326900
 H         7.430549        8.488121        7.812068
 H         6.523931        7.238325        7.882113
 H         6.502309       13.666808        7.864096
 H         6.026588       12.412494        8.623266
 H         0.409064        8.696849        7.815394
 H         1.740060        8.722358        7.029269
 H         1.597994        2.833639        3.315138
 H         2.089931        1.425829        2.436083
 H         5.191646        3.508211        1.021813
 H         5.650586        4.777504        0.266170
 H         5.997646        5.081997        2.528363
 H         6.015134        5.131648        4.072143
 H         5.239126        3.749491        5.741203
 H         4.265494        4.918122        5.597134
 H         1.872205        1.373643        4.100307
 H         2.299943       14.286524        5.477270
 H         2.053884        5.153477        6.330619
 H         2.490245        6.402871        5.529178
 H         5.691556        1.398504        1.751318
 H         5.607721        1.422094        0.211977
 H         0.335689        4.844512        7.846836
 H         1.303262        3.639543        7.891674
 H         1.854532        4.710034        4.116851
 H         1.904282        4.678596        2.547987
 H         2.158617        5.025709        0.324095
 H         3.522312        5.018945        1.062668
 H         2.663087       14.528932        1.218077
 H         3.633672        1.172706        1.166131
 H         6.591511       14.472922        3.150723
 H         7.436304        1.162703        3.170797
 H         7.476732        1.179719        7.924110
 H         6.089596        1.283630        7.291954
 H         6.029469        5.120360        8.661781
 H         6.033790        5.207708        7.126177
 H         1.858233        1.514867        8.753824
 H         1.886650        1.538151        7.222830
 H         9.597030        1.473255        4.098296
 H         9.606749        1.469441        2.553122
 H        13.410947        4.848468        0.252695
 H        12.085692        4.853739        1.056721
 H        15.183504        4.973580        3.282102
 H        13.859760        5.027744        2.491552
 H        13.372363        4.817796        4.778770
 H        12.013562        4.823327        5.522007
 H        10.432901       14.478388        5.569545
 H        11.353662        1.116459        5.584777
 H         9.878121        5.096063        4.755680
 H         9.889314        5.098975        6.305357
 H        12.971970        2.758552        1.060628
 H        13.369360        1.500424        1.863635
 H        13.504983        1.498654        6.417369
 H        13.003675        2.732796        5.623714
 H         9.522005        4.855275        8.587331
 H         8.177800        4.852432        7.834049
 H         9.064368        3.575241        3.302220
 H         8.150071        4.823670        3.286410
 H        10.393409        6.396381        1.091465
 H         9.938725        5.132847        1.857202
 H        11.280212        1.186192        0.999013
 H         9.926075        1.170675        0.260586
 H        13.796041        1.216270        4.173418
 H        15.083478        1.217349        3.336008
 H        15.222836        1.246478        7.935022
 H        13.861590        1.216705        8.666339
 H        13.716487        5.069196        8.615340
 H        13.710370        5.076823        7.064561
 H         9.130895        2.742870        7.787454
 H         9.589953        1.479774        7.024262
 H         1.779322        1.487785       13.188754
 H         1.330201        2.743650       12.401682
 H         4.250104        4.796865       10.097046
 H         5.156284        3.544297       10.126265
 H         5.993418        5.114841       11.537188
 H         6.468197        6.380827       12.289098
 H         5.624797        4.850426       13.765234
 H         4.298144        4.845790       14.559152
 H         2.211131        1.181843       15.409843
 H         3.538377        1.199672       14.620246
 H         2.149715        5.127921       13.789654
 H         2.597512        6.385028       14.568892
 H         5.677387        1.426621       10.980684
 H         5.683637        1.440509        9.441925
 H         5.210789        2.750882       14.600048
 H         5.669479        1.483898       15.371701
 H         0.401194        4.828987       16.767460
 H         1.751844        4.835766       16.014488
 H         1.752887        4.851383       11.547236
 H         0.417743        4.842605       12.323585
 H         2.601025        6.418301       10.090637
 H         2.118879        5.187055        9.297907
 H         3.536401        1.179094       10.200628
 H         2.189786        1.198389       10.965829
 H         7.428593        1.168422       12.404683
 H         6.091250        1.176111       13.190734
 H         7.426772        1.143804       16.772091
 H         6.531326       14.480746       16.770939
 H         7.422901        5.075651       16.774698
 H         6.081830        5.083142       15.999317
 H         1.806276        1.526646       17.669268
 H         1.343015        2.757127       16.858749
 H         9.568275        8.721974       11.488948
 H         9.573904        8.716033       13.037304
 H        12.978521       10.843603       10.031019
 H        13.422321       12.116281        9.273100
 H        15.174970       12.351485       12.293265
 H        13.839561       12.372749       11.510362
 H        13.448092       12.121460       13.769020
 H        13.456656       12.136984       15.316137
 H         9.946691        8.484748       15.305326
 H        11.297530        8.481475       14.554790
 H        11.291569       12.358375       14.573172
 H         9.953774       12.369977       15.351554
 H        13.401199        8.730537        9.263693
 H        12.056569        8.733892       10.021113
 H        12.992447       10.027206       14.570148
 H        13.446758        8.763761       15.334010
 H         9.516938       12.139589       17.604170
 H         8.184286       12.143490       16.820265
 H         9.101616       10.825892       12.311891
 H         9.545102       12.078022       13.102806
 H         9.933395       12.382622       10.861220
 H        11.269480       12.384975       10.085463
 H        10.360765        7.183662       10.012269
 H         9.930854        8.447928        9.225985
 H        13.790117        8.491045       13.070532
 H        13.781507        8.481297       11.523988
 H        13.848057        8.469987       17.571291
 H        15.198298        8.476510       16.813301
 H        13.804268       12.402193       17.567905
 H        14.264002       13.668874       16.812056
 H         8.172167        8.771463       16.770569
 H         9.060278       10.037141       16.768864
 H         0.417353        8.713019       12.297116
 H         1.764209        8.729147       11.531309
 H         4.276860       12.150308       10.103497
 H         5.620778       12.150325       10.871129
 H         6.527868       13.659288       12.352237
 H         7.408953       12.391614       12.312773
 H         5.665451       12.082335       13.763181
 H         5.216580       10.818541       14.530396
 H         3.532587        8.480918       14.533533
 H         2.182371        8.483987       13.774311
 H         3.542887       12.402415       14.565712
 H         2.659048       13.671490       14.578524
 H         5.211927       10.060253       10.049337
 H         5.678005        8.806708        9.269163
 H         5.690904        8.714784       13.763851
 H         5.682555        8.709669       15.313484
 H         1.783222       12.141253       16.027098
 H         0.433755       12.131652       16.782520
 H         1.333220       10.814215       12.361560
 H         1.778597       12.080141       13.132782
 H         2.579571       13.679964       10.125258
 H         2.137640       12.408438       10.883216
 H         3.539784        8.521709       10.056808
 H         2.197286        8.505060        9.286812
 H         6.063729        8.504863       11.499891
 H         7.411396        8.480816       12.256282
 H         6.035400        8.443866       17.591852
 H         6.497046        7.183625       16.826889
 H         6.014277       12.381214       17.564154
 H         6.031660       12.372183       16.019161
 H         1.368233       10.020001       16.808828
 H         1.805706        8.770115       16.013103
