381
 generated by VMD
 O         9.082912        1.761124       12.277212
 O        12.995933        4.500026       10.089588
 O        14.287638        5.416341       12.320623
 O        12.993086        4.474399       14.535772
 O        10.381239        0.853417       14.498881
 O        10.411318        5.405740       14.559657
 O        12.972321        1.765235       10.101665
 O        12.961640        1.733874       14.549612
 O         9.114149        4.508523       16.808306
 O         9.105413        4.499952       12.328708
 O        10.405857        5.415973       10.086270
 O        10.393153        0.847112       10.073532
 O        14.278040        0.836244       12.331870
 O        14.272547        0.898630       16.785883
 O        14.243964        5.394216       16.772259
 O         9.052444        1.754958       16.735153
 O         9.096124        9.066555        3.358050
 O        12.985466       11.781087        1.112134
 O        14.253387       12.742859        3.343731
 O        12.981070       11.816980        5.574773
 O        10.414877        8.160491        5.577807
 O        10.406712       12.697044        5.589833
 O        13.004586        9.046917        1.115810
 O        12.990575        9.074123        5.572364
 O         9.127809       11.788289        7.831720
 O         9.100651       11.793374        3.356041
 O        10.373184       12.668441        1.081401
 O        10.385457        8.195707        1.111904
 O        14.294866        8.126743        3.355132
 O        14.243161        8.162820        7.828519
 O        14.229911       12.722537        7.845143
 O         9.107281        9.041712        7.811842
 O         1.337841        9.045654        3.383626
 O         5.219843       11.753588        1.110010
 O         6.461827       12.580997        3.393704
 O         5.190099       11.737967        5.667595
 O         2.580909        8.106264        5.623851
 O         2.583136       12.678495        5.638639
 O         5.193007        9.033781        1.077298
 O         5.165592        9.006222        5.600389
 O         1.258911       11.773189        7.863878
 O         1.279493       11.771876        3.375002
 O         2.558814       12.639578        1.069070
 O         2.589767        8.192297        1.115537
 O         6.497592        8.182767        3.359223
 O         6.499811        8.149495        7.821005
 O         6.534195       12.702519        7.851698
 O         1.293514        9.037916        7.845707
 O         1.323319        1.794553        3.023867
 O         5.245030        4.687688        1.122558
 O         6.499615        5.441784        3.381415
 O         5.175292        4.556311        5.633697
 O         2.514122        0.810899        5.626052
 O         2.578478        5.367144        5.569864
 O         4.818190        2.017453        0.455916
 O         5.122636        1.805203        5.729413
 O         1.301596        4.517845        7.842896
 O         1.293863        4.440230        3.248360
 O         2.605645        5.478458        1.063586
 O         2.433890        1.104328        0.991706
 O         6.534223        0.849465        7.884287
 O         6.513531        5.418989        7.869352
 O         1.308392        1.783189        7.887224
 O         9.447939        2.005233        3.317345
 O        12.947848        4.519277        1.093065
 O        14.288237        5.399343        3.308009
 O        13.000416        4.512581        5.585772
 O        10.483934        0.804371        5.629053
 O        10.425954        5.433830        5.580519
 O        13.023260        1.791384        1.069342
 O        13.099072        1.762850        5.564812
 O         9.103041        4.526605        7.826166
 O         9.154791        4.603363        3.341599
 O        10.392348        5.454340        1.092054
 O        10.432419        0.774836        0.982075
 O        14.377002        0.869792        3.324721
 O        14.268192        0.860159        7.869989
 O        14.263666        5.423742        7.832986
 O         9.122416        1.792970        7.830283
 O         1.327148        1.765287       12.321677
 O         5.197820        4.478250       10.096737
 O         6.516912        5.426960       12.288627
 O         5.226555        4.503306       14.542350
 O         2.556504        0.854935       14.557640
 O         2.638075        5.404549       14.560697
 O         5.196272        1.753233       10.063143
 O         5.190336        1.735706       14.489311
 O         1.337266        4.505155       16.783808
 O         1.332949        4.504577       12.318397
 O         2.605497        5.397438       10.078845
 O         2.613650        0.865691       10.099773
 O         6.509036        0.826194       12.263957
 O         6.488920        0.803411       16.712818
 O         6.539648        5.433540       16.760057
 O         1.213760        1.838384       16.888956
 O         9.125890        9.049256       12.310895
 O        12.938816       11.835717       10.089006
 O        14.261275       12.706027       12.339436
 O        12.979920       11.780973       14.581903
 O        10.408900        8.139421       14.561239
 O        10.386007       12.706812       14.549702
 O        12.964039        9.089264       10.063519
 O        12.988180        9.043700       14.558726
 O         9.092540       11.784082       16.782667
 O         9.075414       11.782840       12.324110
 O        10.355356       12.719824       10.080608
 O        10.391265        8.155301       10.056335
 O        14.265056        8.157971       12.293571
 O        14.271540        8.138118       16.796755
 O        14.297242       12.718036       16.814205
 O         9.102111        9.044718       16.789940
 O         1.332253        9.026221       12.284962
 O         5.191841       11.833695       10.058782
 O         6.510080       12.700650       12.307003
 O         5.210074       11.803158       14.553349
 O         2.633834        8.139300       14.545831
 O         2.604650       12.692815       14.510556
 O         5.198511        9.089869       10.056396
 O         5.205491        9.070303       14.499725
 O         1.343809       11.781405       16.755529
 O         1.308895       11.769260       12.290365
 O         2.599883       12.715466       10.076095
 O         2.634505        8.133017       10.052187
 O         6.531396        8.172301       12.277718
 O         6.500403        8.166480       16.751934
 O         6.509202       12.680821       16.806986
 O         1.322165        9.060562       16.793833
 H         9.526425        1.438226       11.484022
 H         8.180971        1.425123       12.248656
 H        13.452593        4.829190        9.308053
 H        13.472400        4.839397       10.854422
 H        14.297543        6.379812       12.314430
 H        15.206670        5.127442       12.319784
 H        13.450072        4.780996       13.744572
 H        12.989594        3.511757       14.507821
 H        10.364862       14.492713       14.498075
 H         9.918594        1.143032       13.704103
 H         9.963442        5.075277       13.773040
 H        11.313284        5.071551       14.526748
 H        13.433800        1.463194       10.890256
 H        12.985806        2.728433       10.119874
 H        12.051622        1.415870       14.510364
 H        13.407030        1.398424       13.763306
 H         9.576283        4.842763       17.585859
 H         9.589838        4.835932       16.038143
 H         9.070090        3.537376       12.308838
 H         8.193684        4.809125       12.310164
 H         9.967799        5.085755       10.877147
 H        11.310038        5.086775       10.109064
 H        11.308776        1.144412       10.080135
 H        10.407339       14.486074       10.068295
 H        15.192000        1.138242       12.324068
 H        14.300863       14.474785       12.329679
 H        13.782377        1.190518       16.006598
 H        13.793545        1.221085       17.560610
 H        13.818871        5.055420       15.975466
 H        15.151629        5.081636       16.755138
 H         9.517576        1.473911       15.940731
 H         9.082827        2.717073       16.751297
 H         9.076183       10.030975        3.361921
 H         8.178597        8.774134        3.358437
 H        13.007186       10.817921        1.095840
 H        13.447605       12.082588        0.325136
 H        13.782512       12.397195        2.577599
 H        13.788969       12.417801        4.124719
 H        12.071151       12.139366        5.591937
 H        13.402888       12.142098        6.377098
 H        10.413969        7.196100        5.560174
 H         9.944826        8.453949        4.789621
 H        10.406249       13.662496        5.583397
 H         9.937665       12.414285        4.797606
 H        13.458327        8.707404        0.337921
 H        13.477671        8.714041        1.885861
 H        12.074575        8.772932        5.569340
 H        12.966069       10.037204        5.570542
 H         9.577874       12.095976        7.036315
 H         9.137356       10.826241        7.802120
 H         8.192703       12.113943        3.356661
 H         9.515197       12.126547        2.553698
 H        11.286379       12.367928        1.091923
 H        10.403892       13.632649        1.056887
 H         9.949906        8.519477        1.908766
 H        11.294111        8.510539        1.139182
 H        13.847637        8.464526        4.139349
 H        15.199039        8.457770        3.388641
 H        13.785445        8.497800        7.049321
 H        13.770338        8.501410        8.596587
 H        13.766093       12.430294        8.637183
 H        14.231790       13.685591        7.865955
 H         8.198671        8.725146        7.785122
 H         9.542377        8.715086        7.016252
 H         1.327265       10.008453        3.413826
 H         1.786409        8.741982        4.181002
 H         4.316876       12.074022        1.132801
 H         5.637820       12.059505        1.925313
 H         6.015239       12.274910        4.194269
 H         6.367056       13.537066        3.425566
 H         5.136708       10.776759        5.660794
 H         4.287661       12.069587        5.650358
 H         2.555582        7.144109        5.626444
 H         2.120564        8.406696        6.415240
 H         2.128940       12.351495        4.857460
 H         2.099477       12.346566        6.402085
 H         5.223021        9.997253        1.066328
 H         5.649697        8.736404        0.284206
 H         5.617416        8.682819        6.387787
 H         4.266383        8.664588        5.633482
 H         0.359805       12.119320        7.882883
 H         1.707291       12.115459        8.643685
 H         1.716716       12.077154        2.577354
 H         0.378801       12.113268        3.346093
 H         2.127524       12.347738        0.253792
 H         2.553464       13.587332        1.056124
 H         3.502436        8.503719        1.121393
 H         2.177362        8.510564        1.926973
 H         6.027285        8.489723        2.578432
 H         6.009822        8.500672        4.127083
 H         6.494694        7.186936        7.867201
 H         6.050635        8.467678        8.610454
 H         6.086673       12.368808        7.066161
 H         7.438547       12.375135        7.814247
 H         0.376671        8.740389        7.847938
 H         1.266623       10.001129        7.847904
 H         0.416189        1.451480        3.133193
 H         1.291580        2.764593        3.126574
 H         5.230248        3.740706        1.063149
 H         5.697453        4.922515        1.945310
 H         6.495824        6.404367        3.409902
 H         6.042347        5.136925        4.171887
 H         5.643888        4.849585        6.422626
 H         5.182905        3.593600        5.657670
 H         2.192419        1.080456        4.772200
 H         2.559252       14.448157        5.607206
 H         3.496934        5.068751        5.574649
 H         2.174445        5.025619        4.770237
 H         5.436741        1.551764       -0.137124
 H         3.354010        1.409135        0.896584
 H         5.533209        1.418767        4.949319
 H         4.225969        1.455996        5.715757
 H         1.731285        4.825359        7.038219
 H         0.396517        4.849374        7.819907
 H         1.738259        4.835586        2.490193
 H         0.395249        4.796546        3.260308
 H         2.590394        6.443968        1.084380
 H         3.534805        5.229442        1.098037
 H         1.910445        1.403461        0.170701
 H         1.960003        1.423849        1.899078
 H         6.530770       14.489610        7.836959
 H         6.055442        1.159085        7.108428
 H         6.083492        5.071905        8.656963
 H         7.419876        5.091125        7.874361
 H         1.719606        1.469405        7.075925
 H         1.317652        2.745969        7.851430
 H         9.730273        1.518543        2.546996
 H         9.750000        1.531640        4.089980
 H        13.372464        4.839837        0.291693
 H        12.042148        4.854029        1.084873
 H        14.277848        6.363625        3.312185
 H        13.800838        5.119282        2.525379
 H        12.089363        4.828746        5.561974
 H        13.426888        4.836299        4.787134
 H        11.378531        1.151740        5.643387
 H        10.022863        1.168236        6.389821
 H         9.946371        5.104857        6.347110
 H         9.950118        5.122871        4.798523
 H        12.990346        2.754030        1.113280
 H        13.456154        1.489458        1.871771
 H        13.522411        1.474817        6.380416
 H        13.066059        2.724440        5.592190
 H         9.118813        3.562600        7.838095
 H         9.565056        4.817544        8.618037
 H         8.222546        4.829559        3.358643
 H         9.221305        3.631968        3.331004
 H        10.384044        6.416865        1.112257
 H         9.939434        5.162486        1.895484
 H         9.964584        1.127535        0.220888
 H        11.317704        1.143302        0.967317
 H        13.934541        1.182635        4.125448
 H        14.318891       14.508386        3.343779
 H        15.172597        1.188629        7.911325
 H        13.819084        1.189929        8.655648
 H        14.238551        6.386600        7.814927
 H        13.808030        5.121386        7.039197
 H         8.220158        1.456955        7.837824
 H         9.547053        1.451496        8.622894
 H         1.791335        1.464279       11.530231
 H         1.335062        2.728605       12.295825
 H         5.178240        3.514291       10.083246
 H         4.282920        4.776394       10.081066
 H         6.040270        5.086081       11.522778
 H         6.052648        5.103019       13.065913
 H         5.694055        4.793428       15.333246
 H         5.237683        3.542047       14.545660
 H         2.107565        1.194306       13.771626
 H         2.078924        1.191620       15.313424
 H         3.554963        5.108755       14.556330
 H         2.657951        6.368468       14.555933
 H         5.674384        1.425060        9.290954
 H         5.667902        1.417884       10.832909
 H         4.284086        1.419000       14.527328
 H         5.647327        1.367267       15.251704
 H         1.796356        4.866507       17.551399
 H         1.806672        4.830441       16.005108
 H         1.795599        4.834471       11.538774
 H         1.813483        4.830171       13.086099
 H         2.613633        6.360421       10.049023
 H         2.145853        5.103439        9.284531
 H         3.524236        1.181304       10.064975
 H         2.176516        1.197471        9.307403
 H         6.039818        1.130294       13.046281
 H         6.502069       14.464849       12.295158
 H         7.397521        1.127580       16.743362
 H         6.527188       14.443273       16.772877
 H         7.447047        5.109094       16.798637
 H         6.118807        5.182743       17.587681
 H         0.290533        1.532284       16.834999
 H         1.215716        2.808296       16.829218
 H         9.594988        8.714032       13.081976
 H         9.593113        8.728250       11.531573
 H        13.373811       12.154747       10.885736
 H        12.031491       12.159824       10.112211
 H        13.834451       12.370978       13.135098
 H        15.157580       12.354045       12.334816
 H        12.989908       10.817715       14.596138
 H        13.436419       12.079316       15.373959
 H        10.395174        7.176519       14.583460
 H         9.945387        8.441166       15.350357
 H         9.949561       12.379596       15.344282
 H        11.289960       12.377951       14.578156
 H        12.051100        8.780703       10.064125
 H        12.931519       10.051670       10.073843
 H        12.081766        8.716155       14.540422
 H        13.416780        8.728458       13.755875
 H         9.546469       12.077731       17.581709
 H         9.104362       10.820958       16.798422
 H         9.545906       12.087262       13.107358
 H         9.108511       10.819966       12.338106
 H         9.879319       12.383003       10.846228
 H         9.906903       12.381992        9.296121
 H        10.386639        7.192164       10.043237
 H         9.930263        8.445778        9.261070
 H        15.172539        8.479424       12.268827
 H        13.828141        8.494243       11.503438
 H        13.815473        8.444949       16.004955
 H        14.248036        7.176309       16.766802
 H        15.212841       12.422429       16.790119
 H        14.309363       13.678247       16.802921
 H         9.526158        8.733299       17.597134
 H         8.193414        8.726732       16.805147
 H         1.798592        8.702079       13.061709
 H         1.806652        8.694165       11.514357
 H         5.664057       12.154133       10.833617
 H         5.678925       12.149640        9.287930
 H         6.071629       12.375819       13.099543
 H         7.412179       12.361561       12.331212
 H         5.636905       12.119138       15.356671
 H         4.306730       12.133667       14.559919
 H         2.201304        8.468338       15.339804
 H         3.533587        8.485080       14.550643
 H         2.150971       12.382194       13.717708
 H         2.565617       13.652675       14.496123
 H         5.206034       10.053175       10.072709
 H         5.671093        8.794993       10.841479
 H         5.219865       10.033161       14.492921
 H         5.673033        8.777752       13.709625
 H         1.794463       12.064657       15.952239
 H         1.337541       10.816256       16.750257
 H         1.766534       12.078928       11.500096
 H         1.330220       10.806584       12.264870
 H         2.619882       13.678058       10.078631
 H         3.518466       12.423770       10.058143
 H         2.182300        8.464320        9.268356
 H         3.533402        8.479299       10.026481
 H         6.543631        7.209438       12.275001
 H         7.451022        8.459041       12.286980
 H         6.506849        7.204545       16.717533
 H         6.049285        8.468791       15.957056
 H         6.089588       12.356328       17.610735
 H         7.414818       12.349075       16.814632
 H         0.419481        8.724417       16.807005
 H         1.746381        8.751292       17.601919
