381
 generated by VMD
 O         9.101651        1.770710       12.321810
 O        12.953332        4.526567       10.019507
 O        14.252467        5.419941       12.277988
 O        12.977454        4.546340       14.541525
 O        10.409468        0.872037       14.542141
 O        10.381363        5.416041       14.554041
 O        12.990113        1.767076       10.091862
 O        12.976728        1.804682       14.534129
 O         9.073760        4.482186       16.786066
 O         9.111483        4.538110       12.282471
 O        10.339281        5.460563       10.025157
 O        10.430279        0.881687       10.102456
 O        14.276670        0.856285       12.320607
 O        14.237520        0.871675       16.777817
 O        14.286455        5.426803       16.785553
 O         9.110523        1.745436       16.779497
 O         9.094976        9.027374        3.312313
 O        12.980929       11.813501        1.088277
 O        14.224391       12.733818        3.335358
 O        13.009297       11.834735        5.612692
 O        10.408817        8.148398        5.529562
 O        10.405884       12.704899        5.574107
 O        12.971726        9.077984        1.060372
 O        12.982259        9.089195        5.574526
 O         9.153011       11.763558        7.838542
 O         9.107774       11.769516        3.353890
 O        10.374267       12.661243        1.090369
 O        10.384975        8.163713        1.055468
 O        14.226668        8.153144        3.313814
 O        14.246982        8.184435        7.830238
 O        14.284377       12.705086        7.863490
 O         9.079265        8.967703        7.771936
 O         1.280847        9.036207        3.339532
 O         5.208548       11.798018        1.085086
 O         6.524725       12.693053        3.296772
 O         5.152384       11.692488        5.484122
 O         2.578296        8.162896        5.577442
 O         2.574695       12.695205        5.579802
 O         5.218813        9.066470        1.077801
 O         5.196280        9.001958        5.616545
 O         1.336079       11.798178        7.869417
 O         1.268713       11.786250        3.341383
 O         2.609971       12.697809        1.117491
 O         2.608736        8.174289        1.091447
 O         6.492866        8.138482        3.342047
 O         6.578346        8.008845        7.693029
 O         6.400019       12.268703        7.946033
 O         1.311615        9.047916        7.845587
 O         1.264488        1.780512        3.278264
 O         5.200787        4.529121        1.093477
 O         6.516757        5.387503        3.328303
 O         5.398918        4.605851        5.635108
 O         2.470525        0.825607        5.538141
 O         2.629568        5.415691        5.625895
 O         5.188500        1.785059        0.990160
 O         4.858882        1.981211        5.036324
 O         1.332612        4.490101        7.823586
 O         1.314730        4.519574        3.346326
 O         2.617367        5.448517        1.105806
 O         2.611438        0.845697        1.062352
 O         6.512909        0.831427        3.172704
 O         6.710053        5.517839        7.614491
 O         1.291629        1.752669        7.832364
 O         9.095963        1.750979        3.276531
 O        12.971023        4.484855        1.060043
 O        14.254610        5.416171        3.296862
 O        12.998415        4.523262        5.566607
 O        10.383169        0.855545        5.557631
 O        10.436820        5.417981        5.502374
 O        12.927190        1.753682        1.061391
 O        12.982128        1.774099        5.583423
 O         9.056915        4.669151        7.812327
 O         9.097305        4.510622        3.268652
 O        10.389200        5.427078        1.048360
 O        10.388032        0.789989        1.065909
 O        14.206782        0.874501        3.311721
 O        14.245260        0.847276        7.839810
 O        14.281754        5.453815        7.789348
 O         9.250072        1.988759        7.837615
 O         1.321158        1.744527       12.334190
 O         5.124376        4.475000       10.224081
 O         6.524769        5.440687       12.389384
 O         5.201401        4.480816       14.580969
 O         2.609123        0.834747       14.579679
 O         2.615547        5.391259       14.571407
 O         5.138081        1.788122       10.303110
 O         5.193464        1.747352       14.594716
 O         1.330597        4.496881       16.812323
 O         1.285601        4.467043       12.352891
 O         2.525581        5.379351       10.111178
 O         2.572238        0.818263       10.080011
 O         6.536808        0.803779       12.418319
 O         6.532058        0.825526       16.779333
 O         6.482643        5.412407       16.800976
 O         1.284084        1.754992       16.794147
 O         9.070651        9.072190       12.277575
 O        12.969356       11.820184       10.100395
 O        14.260632       12.723351       12.342947
 O        12.985633       11.798112       14.580873
 O        10.371905        8.151743       14.507865
 O        10.401855       12.737512       14.550915
 O        12.953193        9.090624       10.073978
 O        12.954354        9.057524       14.542131
 O         9.094055       11.795605       16.765648
 O         9.113873       11.794868       12.312521
 O        10.394906       12.732196       10.077228
 O        10.375804        8.180871       10.050544
 O        14.262762        8.163329       12.302896
 O        14.266283        8.166743       16.767792
 O        14.282843       12.729129       16.808294
 O         9.109607        9.068746       16.765863
 O         1.329513        9.029454       12.332829
 O         5.163110       11.704523       10.187757
 O         6.501037       12.665592       12.347994
 O         5.206417       11.794771       14.569343
 O         2.630756        8.130355       14.571754
 O         2.628823       12.697558       14.578038
 O         5.176787        8.910117       10.074871
 O         5.190670        9.070669       14.577650
 O         1.324560       11.802044       16.807705
 O         1.296613       11.780396       12.363680
 O         2.615144       12.675932       10.115293
 O         2.590275        8.105415       10.063063
 O         6.487495        8.165971       12.347441
 O         6.519150        8.152471       16.791735
 O         6.509809       12.698140       16.789879
 O         1.323551        9.070595       16.798502
 H         8.191425        1.454313       12.333773
 H         9.064398        2.731060       12.293064
 H        13.390063        4.856483        9.228126
 H        12.049914        4.854633        9.997588
 H        15.147178        5.063284       12.277241
 H        13.817642        5.095754       11.482898
 H        13.432508        4.876766       13.759775
 H        13.461135        4.870271       15.308483
 H        11.308509        1.216829       14.513678
 H         9.961943        1.200792       13.753681
 H         9.943088        5.073789       15.339608
 H        11.290452        5.098695       14.577025
 H        12.963737        2.728117       10.068577
 H        12.071664        1.469316       10.107382
 H        13.442940        1.495080       13.749697
 H        12.997028        2.767182       14.512424
 H         9.061257        3.518748       16.787962
 H         8.157379        4.776686       16.785469
 H         9.547734        4.842875       13.084764
 H         8.205560        4.861633       12.325165
 H        10.354845        6.423471       10.078945
 H         9.903425        5.143238       10.826015
 H         9.931923        1.194655       10.865973
 H         9.997490        1.252804        9.328797
 H        13.820657        1.155120       11.525891
 H        14.257101       14.495174       12.311287
 H        13.759228        1.194898       17.549309
 H        13.776214        1.206717       16.001295
 H        15.189934        5.094539       16.813896
 H        13.838838        5.082470       17.565516
 H         9.577042        1.394446       17.545156
 H         9.580433        1.431357       15.998178
 H         9.522852        8.714870        2.507296
 H         8.187974        8.706926        3.296268
 H        12.067668       12.119140        1.102299
 H        13.396605       12.145189        1.892110
 H        14.215292       13.696756        3.345095
 H        13.791462       12.443858        4.146003
 H        13.464939       12.118766        6.413109
 H        13.012629       10.872342        5.617927
 H         9.943323        8.448475        4.740402
 H        10.425691        7.186486        5.487643
 H        11.328728       12.432107        5.589967
 H        10.402108       13.667902        5.577775
 H        13.432943        8.782165        0.268032
 H        12.993387       10.041335        1.053709
 H        13.415200        8.756737        4.781094
 H        12.077064        8.762484        5.544020
 H         9.152999       10.806365        7.790131
 H         9.586590       12.083395        7.041971
 H         9.117301       10.807671        3.374783
 H         9.572497       12.074729        4.141419
 H         9.910939       12.325182        1.864867
 H         9.903965       12.340405        0.313518
 H         9.956738        8.501172        0.260242
 H        11.288238        8.498460        1.043092
 H        13.780005        8.461101        2.517396
 H        14.213229        7.190523        3.286060
 H        13.779723        8.516842        8.604548
 H        13.780971        8.514644        7.054685
 H        15.191246       12.381084        7.893370
 H        13.843664       12.379059        8.655641
 H         9.578889        8.663322        7.006082
 H         9.557823        8.683609        8.559103
 H         0.376555        8.705241        3.304556
 H         1.724050        8.729856        2.541561
 H         4.301757       12.119581        1.123548
 H         5.657261       12.124599        1.873408
 H         6.556724       13.653689        3.272549
 H         7.436704       12.385163        3.327133
 H         5.606016       12.069336        4.725820
 H         4.267168       12.066918        5.501273
 H         2.560440        7.201799        5.566423
 H         2.121872        8.458604        4.781120
 H         2.083829       12.357722        4.823761
 H         2.134669       12.366530        6.370820
 H         5.226337       10.030094        1.101281
 H         5.659503        8.766255        1.878162
 H         4.275749        8.717955        5.606279
 H         5.177474        9.968997        5.575465
 H         1.803845       12.094222        8.659269
 H         1.346171       10.836556        7.887616
 H         1.240763       10.824294        3.339195
 H         0.356777       12.095435        3.333178
 H         2.148481       12.366554        0.339329
 H         2.129353       12.368279        1.883870
 H         3.514205        8.499806        1.070605
 H         2.174033        8.502541        0.295960
 H         6.487275        7.176763        3.346065
 H         6.030437        8.422880        4.136682
 H         6.092972        8.408959        6.953602
 H         7.465076        8.405518        7.713880
 H         7.347733       12.177402        7.868780
 H         6.019378       12.115605        7.084812
 H         1.734216        8.734831        7.039596
 H         0.397871        8.744599        7.818820
 H         1.683705        1.409582        4.061515
 H         1.745899        1.442537        2.515583
 H         4.299370        4.869142        1.081045
 H         5.632959        4.859303        0.296726
 H         6.064450        5.071084        2.536301
 H         7.427740        5.072576        3.278201
 H         6.224106        5.119762        6.837682
 H         5.789103        4.870272        4.785616
 H         2.061310        1.131063        6.355221
 H         2.505330       14.465355        5.582884
 H         2.199803        5.074436        6.421545
 H         3.545232        5.147157        5.667089
 H         5.160901        2.747131        1.020363
 H         4.276297        1.474626        0.999911
 H         5.288180        3.658065        5.589042
 H         4.008539        1.559741        5.235210
 H         1.319526        3.525927        7.841714
 H         1.755131        4.773056        8.642437
 H         1.316450        3.555979        3.344373
 H         1.772175        4.797718        4.143680
 H         2.598135        6.412169        1.117985
 H         2.158442        5.149575        1.896570
 H         2.132935        1.130648        0.275952
 H         2.600924       14.484556        1.061629
 H         5.972227        1.179605        3.877247
 H         6.081891        1.136963        2.366501
 H         6.670710        6.535970        7.612756
 H         7.658150        5.153465        7.700784
 H         1.738515        1.413589        8.616205
 H         0.384914        1.428120        7.867675
 H         8.180443        1.456609        3.266056
 H         9.077888        2.712507        3.270607
 H        12.926381        3.521984        1.060002
 H        12.062079        4.802465        1.054690
 H        13.822992        5.068406        2.508685
 H        15.162419        5.097313        3.284465
 H        13.467502        4.874472        6.331682
 H        13.459377        4.842587        4.783568
 H         9.953083        1.174082        4.759406
 H        11.285134        1.189640        5.540280
 H        10.002065        5.133634        6.307762
 H        11.341794        5.083721        5.542090
 H        12.031168        1.397556        1.075602
 H        13.360971        1.433454        1.859826
 H        13.000544        2.735660        5.611214
 H        13.422475        1.462912        6.381657
 H         9.107680        3.697834        7.813564
 H         9.508162        4.960667        8.622830
 H         9.564764        4.846974        2.494824
 H         9.579525        4.823840        4.039729
 H        10.380497        6.390235        1.021579
 H         9.924815        5.120021        0.261832
 H         9.927224        1.104255        1.851227
 H        10.369670       14.429016        1.096161
 H        15.110463        1.205032        3.306445
 H        13.795071        1.206994        4.117284
 H        14.244688       14.486447        7.862983
 H        13.790824        1.144831        8.635656
 H        15.193791        5.147338        7.804895
 H        14.303217        6.416960        7.808945
 H         9.566773        1.566016        7.030978
 H         8.324409        1.740604        7.943320
 H         0.414389        1.418572       12.312910
 H         1.751033        1.409490       11.538866
 H         5.625638        4.632165        9.432408
 H         5.114229        3.508231       10.309077
 H         6.037815        5.138029       11.617813
 H         6.498676        6.404175       12.373466
 H         5.214803        3.517094       14.565278
 H         5.678144        4.784046       13.801118
 H         2.150279        1.158790       13.797119
 H         2.124893        1.167979       15.342341
 H         2.643248        6.354270       14.569682
 H         3.529794        5.087710       14.565502
 H         5.645197        1.420809       11.040202
 H         5.693805        1.653088        9.528134
 H         4.289948        1.414930       14.613667
 H         5.639648        1.409582       15.378679
 H         1.800279        4.818664       16.034626
 H         1.799716        4.837641       17.580334
 H         1.311237        3.502929       12.368536
 H         1.749160        4.773170       13.139540
 H         3.432484        5.062503       10.153320
 H         2.088593        5.055094       10.908071
 H         3.484323        1.124193       10.121319
 H         2.611763       14.457809       10.083399
 H         6.064369        1.087503       13.207281
 H         6.514206       14.443285       12.400472
 H         6.087432        1.187776       17.552908
 H         7.437725        1.153907       16.792051
 H         6.487126        6.375056       16.771687
 H         6.022613        5.107884       16.010330
 H         0.363320        1.470057       16.789942
 H         1.278891        2.717816       16.803402
 H         8.151394        8.786222       12.297764
 H         9.064044       10.036572       12.295523
 H        13.397381       12.151366       10.896957
 H        12.065825       12.157800       10.105655
 H        15.162478       12.384530       12.361461
 H        13.827473       12.390381       13.136294
 H        12.984944       10.835200       14.591497
 H        13.444817       12.090510       15.375081
 H        10.359134        7.188511       14.503846
 H         9.909087        8.444456       13.715499
 H        10.430964       13.700618       14.542725
 H        11.314430       12.431262       14.563737
 H        13.418912        8.783167       10.859001
 H        12.966179       10.054379       10.104993
 H        13.393604        8.736924       13.747298
 H        12.047840        8.732911       14.509339
 H         8.187851       12.121581       16.748089
 H         9.534417       12.147065       15.983847
 H         9.579553       12.134765       13.083181
 H         9.570347       12.140098       11.537251
 H        10.368314       13.694094       10.050085
 H         9.940363       12.417212        9.287592
 H         9.924385        8.516797       10.833828
 H        11.279189        8.515621       10.084438
 H        14.281405        7.200671       12.289248
 H        15.181026        8.453989       12.315080
 H        14.262811        7.203640       16.762423
 H        13.798840        8.450104       15.974257
 H        13.822474       12.436802       17.602575
 H        14.253875       13.691752       16.809929
 H         9.550345        8.764884       15.965054
 H         9.115894       10.032321       16.737444
 H         1.804100        8.696406       13.102031
 H         1.794205        8.707627       11.554253
 H         5.614246       11.955979        9.362923
 H         5.156022       10.746574       10.177523
 H         7.408991       12.351474       12.303369
 H         6.049875       12.332891       11.561583
 H         5.684565       12.105838       13.790583
 H         5.679373       12.129560       15.338805
 H         3.530818        8.474468       14.596395
 H         2.185577        8.468075       15.356001
 H         2.645750       13.660558       14.572381
 H         3.546681       12.403508       14.571552
 H         4.264133        8.599572       10.030625
 H         5.615405        8.614094        9.280399
 H         5.207941       10.034961       14.596275
 H         5.667867        8.769643       15.358165
 H         1.769264       12.127187       16.016750
 H         0.425413       12.147025       16.784992
 H         1.316826       10.818472       12.376582
 H         1.768565       12.080184       13.147993
 H         2.170938       12.360559       10.908011
 H         3.518774       12.338228       10.152662
 H         2.128150        8.418550        9.277379
 H         2.534773        7.143619       10.058142
 H         6.001229        8.445960       11.565265
 H         6.013778        8.506422       13.114357
 H         7.423745        8.482723       16.803997
 H         6.088090        8.483936       17.586744
 H         6.050332       12.399153       17.581587
 H         6.505579       13.661344       16.814003
 H         1.296369       10.034010       16.797121
 H         0.408967        8.768724       16.784054
