381
 generated by VMD
 O         9.074823        1.776764       12.312265
 O        13.040527        4.488497       10.063954
 O        14.247036        5.406268       12.320878
 O        12.980692        4.482785       14.553713
 O        10.340131        0.877698       14.573403
 O        10.398926        5.432213       14.574038
 O        13.004241        1.746606       10.062610
 O        12.943317        1.740649       14.567471
 O         9.085638        4.531067       16.797213
 O         9.096184        4.508367       12.327205
 O        10.457301        5.420044       10.172314
 O        10.405669        0.862467       10.097850
 O        14.255010        0.842093       12.334182
 O        14.257578        0.823215       16.803577
 O        14.263883        5.399301       16.776709
 O         9.034499        1.795562       16.798220
 O         9.129269        9.044060        3.329788
 O        12.975974       11.802077        1.087014
 O        14.273656       12.682467        3.323314
 O        12.980810       11.796746        5.563586
 O        10.417878        8.138877        5.545424
 O        10.398941       12.711560        5.564295
 O        12.998670        9.059748        1.124066
 O        13.014436        9.051914        5.564300
 O         9.143591       11.832423        7.850027
 O         9.073817       11.789571        3.356236
 O        10.391382       12.727158        1.114203
 O        10.408134        8.149611        1.074495
 O        14.345026        8.147156        3.335423
 O        14.290167        8.166228        7.829201
 O        14.264885       12.742986        7.793984
 O         9.210955        9.084838        7.790234
 O         1.379637        9.042188        3.387926
 O         5.205963       11.809655        1.074078
 O         6.460979       12.588889        3.374178
 O         5.069564       11.731398        5.497581
 O         2.699019        8.384833        5.627209
 O         2.611934       12.729452        5.553451
 O         5.171930        9.077460        1.119428
 O         4.975870        9.275500        5.732202
 O         1.287757       11.820784        7.824528
 O         1.349580       11.800004        3.320260
 O         2.621535       12.704556        1.078472
 O         2.600260        8.154231        1.115235
 O         6.492284        8.148249        3.270796
 O         6.409623        8.871489        7.837773
 O         6.483500       12.635861        7.867172
 O         1.373859        9.094072        7.826224
 O         1.284389        1.742204        3.357405
 O         5.207869        4.453628        1.037877
 O         6.517963        5.350694        3.258439
 O         5.067989        4.398829        5.394001
 O         2.593144        0.820181        5.592023
 O         2.536738        5.432710        5.505522
 O         5.160992        1.712262        1.107576
 O         5.184521        1.645847        5.548378
 O         1.284825        4.485073        7.815984
 O         1.325525        4.479698        3.247282
 O         2.644146        5.428046        1.056748
 O         2.561200        0.832698        1.112796
 O         6.521377        0.774818        3.311424
 O         6.492247        0.826539        7.838161
 O         1.348153        1.758111        7.827724
 O         9.088520        1.746047        3.316967
 O        12.989296        4.476789        1.066577
 O        14.303999        5.425071        3.254461
 O        13.049019        4.525177        5.512537
 O        10.389033        0.870173        5.557523
 O        10.455224        5.447246        5.484876
 O        12.961172        1.730642        1.087608
 O        12.982156        1.779136        5.570143
 O         9.455566        4.475291        7.703238
 O         9.129286        4.482807        3.313535
 O        10.407082        5.413992        1.089066
 O        10.357090        0.856378        1.066969
 O        14.237436        0.827838        3.334656
 O        14.289390        0.862508        7.795651
 O        14.257501        5.412456        7.782138
 O         9.112993        1.693333        7.799516
 O         1.301935        1.755007       12.349531
 O         5.082190        4.447699       10.176695
 O         6.518106        5.412646       12.312477
 O         5.217297        4.496094       14.522282
 O         2.609581        0.835415       14.573881
 O         2.632627        5.384558       14.540584
 O         5.179290        1.704798       10.089198
 O         5.183177        1.759981       14.542348
 O         1.325063        4.509533       16.772190
 O         1.277788        4.488474       12.346661
 O         2.501663        5.417913       10.099435
 O         2.577630        0.836070       10.104116
 O         6.504860        0.859340       12.324270
 O         6.459241        0.868221       16.791483
 O         6.496227        5.418166       16.774158
 O         1.305066        1.761526       16.801868
 O         9.092724        9.079972       12.309867
 O        13.015984       11.825443       10.051065
 O        14.276834       12.706507       12.308686
 O        12.978823       11.825536       14.548193
 O        10.394110        8.182761       14.547008
 O        10.393572       12.748755       14.564314
 O        13.025497        9.084514       10.082189
 O        12.973746        9.089941       14.582483
 O         9.109609       11.822187       16.806246
 O         9.104878       11.824126       12.332987
 O        10.432898       12.717961       10.102747
 O        10.454212        8.190417       10.092918
 O        14.248258        8.148735       12.340200
 O        14.270565        8.139238       16.814577
 O        14.281835       12.686097       16.794559
 O         9.097076        9.078809       16.799839
 O         1.302098        9.023716       12.352246
 O         5.148746       11.826587       10.103934
 O         6.509441       12.741705       12.341436
 O         5.219835       11.817801       14.581104
 O         2.616838        8.113002       14.576589
 O         2.624043       12.690942       14.567474
 O         5.146760        9.072698       10.151343
 O         5.200943        9.068061       14.578460
 O         1.332572       11.771226       16.796524
 O         1.315009       11.756535       12.339534
 O         2.564733       12.690123       10.102475
 O         2.578567        8.154393       10.090302
 O         6.500970        8.172532       12.330281
 O         6.504127        8.153003       16.818928
 O         6.521990       12.740046       16.806667
 O         1.324543        9.030068       16.807903
 H         9.548176        1.476560       11.528510
 H         9.089506        2.740585       12.292214
 H        13.464095        4.781827        9.250896
 H        13.033734        3.525862       10.043286
 H        13.818108        5.105509       11.510927
 H        14.225800        6.368608       12.309176
 H        12.975856        3.519988       14.537192
 H        13.424453        4.776524       13.750239
 H         9.884054        1.204323       13.789574
 H         9.860497        1.216595       15.336927
 H        10.426948        6.394220       14.560676
 H        11.310917        5.123973       14.569139
 H        13.473384        1.418701        9.289001
 H        13.467687        1.415733       10.838597
 H        12.031916        1.430540       14.594909
 H        13.379704        1.407110       15.357840
 H         9.563073        4.851145       17.570118
 H         9.559205        4.858025       16.024193
 H         9.561027        4.831513       13.104764
 H         9.584446        4.838858       11.561854
 H        10.474973        6.378999       10.136563
 H        11.370667        5.121313       10.139834
 H        11.318661        1.167339       10.079290
 H        10.439088       14.503361       10.105888
 H        14.253974       14.481498       12.348567
 H        13.781487        1.132620       13.120749
 H        15.166518        1.141619       16.796467
 H        14.300405       14.463307       16.801237
 H        15.172873        5.081726       16.753550
 H        13.832049        5.067289       15.981079
 H         8.115945        1.506353       16.797607
 H         9.026974        2.759078       16.798410
 H         9.567567        8.700229        4.118617
 H         8.230097        8.710457        3.338867
 H        12.076293       12.145733        1.080608
 H        13.407037       12.124796        0.288103
 H        13.839497       12.358953        2.525895
 H        15.180915       12.364946        3.296391
 H        13.002229       10.833947        5.549658
 H        13.437569       12.092074        4.768422
 H        10.444791        7.170218        5.533586
 H        11.332461        8.438907        5.543239
 H         9.979598       12.411055        6.375897
 H        11.304689       12.383869        5.582162
 H        12.084297        8.757071        1.111650
 H        12.969592       10.022195        1.105755
 H        13.493520        8.713161        4.801072
 H        13.473647        8.732534        6.347855
 H         8.218781       12.092297        7.852602
 H         9.163733       10.870832        7.824614
 H         9.539649       12.094455        4.143527
 H         9.120906       10.827769        3.363878
 H        10.361577       13.690874        1.117755
 H         9.928433       12.429765        1.903142
 H        10.405249        7.185646        1.095462
 H         9.960046        8.441406        1.874811
 H        14.320223        7.183452        3.291702
 H        13.872403        8.465312        2.558282
 H        15.195127        8.485790        7.856203
 H        13.856977        8.493113        8.625674
 H        14.257872       13.707567        7.769524
 H        13.807000       12.437014        7.003801
 H         8.295536        8.834659        7.770193
 H         9.623326        8.719227        6.996846
 H         1.804265        8.708507        2.587533
 H         0.469686        8.717497        3.363774
 H         4.305708       12.153355        1.050287
 H         5.653660       12.146796        0.289391
 H         6.054062       12.308790        2.545720
 H         7.376604       12.284163        3.358017
 H         4.189046       12.148527        5.491635
 H         5.562775       12.050683        4.722424
 H         2.174741        8.629120        6.410364
 H         2.199841        8.629116        4.829098
 H         2.142887       12.440585        4.761780
 H         2.589736       13.697417        5.559559
 H         4.255560        8.778071        1.102284
 H         5.156775       10.040709        1.086334
 H         4.995676       10.298140        5.612814
 H         4.005007        8.893743        5.708026
 H         1.728063       12.155321        7.038783
 H         0.382113       12.154510        7.795377
 H         1.799090       12.095449        2.519727
 H         1.366529       10.838508        3.312814
 H         2.162440       12.398550        0.288001
 H         2.579947       13.667990        1.070310
 H         2.139958        8.446813        0.319770
 H         2.614234        7.189844        1.083732
 H         6.013372        8.441970        4.033948
 H         6.012576        8.490170        2.501976
 H         5.461997        9.036122        6.547749
 H         5.956488        8.882589        8.703800
 H         5.993627       12.338316        8.643751
 H         5.989607       12.351823        7.101951
 H         1.347335       10.057028        7.871943
 H         1.807333        8.779251        8.629972
 H         1.722577        1.418174        4.151211
 H         0.378523        1.415545        3.381343
 H         5.198821        3.491493        1.075013
 H         5.674489        4.753142        1.826276
 H         6.496789        6.308329        3.288644
 H         6.032786        5.039531        4.031353
 H         5.114096        3.437993        5.474471
 H         5.427515        4.740526        6.219155
 H         3.507257        1.129551        5.591604
 H         2.181608        1.167815        6.392560
 H         2.645975        6.377340        5.570580
 H         3.429835        5.065377        5.490106
 H         4.253280        1.393610        1.144253
 H         5.613964        1.370034        1.884653
 H         5.665974        1.374193        6.336568
 H         5.683638        1.330844        4.788815
 H         1.726068        4.820559        7.031889
 H         0.378738        4.812784        7.782831
 H         1.325529        3.518616        3.310170
 H         1.744514        4.811454        4.048420
 H         2.201729        5.073466        1.836381
 H         3.542123        5.079449        1.068824
 H         2.107959        1.180615        0.336992
 H         2.089426        1.161360        1.885777
 H         7.431225        1.094003        3.311554
 H         6.554377       14.418125        3.323616
 H         6.487485       14.471609        7.886952
 H         6.025121        1.144468        8.618593
 H         1.350711        2.722075        7.846678
 H         1.784708        1.461492        8.633108
 H         9.546007        1.453386        4.113634
 H         9.101076        2.709965        3.337659
 H        12.991370        3.513960        1.052359
 H        13.435739        4.770173        0.264600
 H        15.203041        5.079955        3.221247
 H        13.849648        5.086369        2.474653
 H        13.505180        4.805543        4.712904
 H        13.034792        3.562788        5.508451
 H        10.389775       14.511328        5.575176
 H         9.930010        1.156501        6.358267
 H        11.361436        5.126721        5.475481
 H        10.068740        5.096791        6.307756
 H        13.397930        1.392863        0.297997
 H        12.049539        1.421738        1.056546
 H        12.070506        1.467452        5.562316
 H        13.398559        1.427206        4.776662
 H         9.281294        3.538148        7.766884
 H         9.735880        4.775851        8.564900
 H         8.221592        4.799902        3.336873
 H         9.566601        4.826244        4.103760
 H        11.306714        5.071870        1.100771
 H         9.970770        5.075918        1.880280
 H         9.904353        1.191077        1.849828
 H         9.876156        1.193776        0.303679
 H        14.235961       14.467945        3.309136
 H        13.786607        1.127181        2.537156
 H        15.193941        1.193494        7.780468
 H        13.847150        1.209450        7.012839
 H        14.247338        6.373652        7.783222
 H        13.810743        5.126022        6.976928
 H         9.532856        1.391482        8.609374
 H         8.193273        1.418276        7.839801
 H         1.276162        2.718540       12.343340
 H         0.386464        1.455735       12.348820
 H         5.443412        4.779198        9.353154
 H         5.625250        4.813737       10.885377
 H         6.540215        6.373834       12.307610
 H         7.434472        5.112651       12.300151
 H         5.691286        4.830947       13.751883
 H         5.681849        4.827968       15.297492
 H         2.164707        1.166363       13.785583
 H         3.512280        1.171234       14.540654
 H         3.535356        5.049395       14.506001
 H         2.178438        5.058258       13.755070
 H         5.146581        2.667120       10.100942
 H         4.263604        1.407417       10.094320
 H         5.205803        2.722936       14.516274
 H         5.655339        1.455008       13.759194
 H         1.797342        4.843729       17.541716
 H         1.800502        4.829025       15.997020
 H         0.374106        4.823649       12.341577
 H         1.689635        4.815831       11.538360
 H         2.104089        5.086595        9.286979
 H         3.403672        5.082424       10.113940
 H         2.556366       14.477066       10.129523
 H         2.124571        1.144916       10.896143
 H         6.058124        1.173267       11.529475
 H         7.407747        1.195995       12.290298
 H         5.975763        1.174484       17.565887
 H         5.988855        1.192388       16.015232
 H         6.056519        5.055187       17.551018
 H         7.405759        5.101333       16.800014
 H         1.320620        2.724174       16.773207
 H         1.771680        1.455992       16.015949
 H         9.110028       10.042239       12.341651
 H         9.554064        8.772460       13.097944
 H        13.431709       12.166139        9.251967
 H        12.109560       12.152366       10.054382
 H        15.176464       12.363639       12.308398
 H        13.856132       12.387717       11.502651
 H        12.077760       12.165600       14.536359
 H        13.409699       12.143187       13.747163
 H        11.296778        8.517803       14.577662
 H         9.953618        8.504245       15.340263
 H         9.943852       12.438267       15.357118
 H        10.361798       13.711862       14.586809
 H        12.107647        8.788537       10.085263
 H        13.003274       10.047293       10.067829
 H        12.993221       10.052863       14.595691
 H        13.432761        8.785619       15.371974
 H         9.113776       10.858927       16.817335
 H         9.564416       12.110784       17.604280
 H         8.201695       12.156632       12.351959
 H         9.539911       12.159946       13.124408
 H         9.956064       12.392380       10.873546
 H         9.959286       12.401029        9.327798
 H         9.995352        8.490892        9.304914
 H         9.957672        8.515141       10.851250
 H        13.777214        8.488996       13.107762
 H        13.802442        8.497136       11.560135
 H        14.249670        7.175956       16.821033
 H        13.822720        8.435086       17.613817
 H        15.182770       12.346342       16.775543
 H        13.848735       12.375746       15.991808
 H         9.538481        8.733583       17.583542
 H         8.195092        8.743646       16.822107
 H         1.742936        8.683751       13.138366
 H         0.393937        8.701796       12.376516
 H         5.113482       10.867798       10.164952
 H         4.233715       12.131588       10.111139
 H         6.037103       12.448239       11.557920
 H         6.502734       13.706465       12.320058
 H         5.688107       12.149035       13.807306
 H         5.691938       12.150805       15.351819
 H         2.655809        7.149734       14.559973
 H         3.525995        8.429512       14.572259
 H         2.632542       13.654596       14.567425
 H         3.545199       12.408586       14.568800
 H         4.255526        8.702777       10.154230
 H         5.609151        8.722720       10.923409
 H         5.658292        8.770242       15.371549
 H         5.213874       10.030665       14.596539
 H         1.791854       12.071440       16.004095
 H         1.344514       10.808148       16.778263
 H         1.321200       10.793409       12.374990
 H         1.779294       12.067970       13.123842
 H         2.090034       12.383183        9.324481
 H         2.102856       12.343123       10.874348
 H         2.550612        7.189582       10.085213
 H         2.116561        8.437115       10.887679
 H         6.075781        8.494072       13.132215
 H         7.405528        8.503821       12.342050
 H         6.487751        7.188881       16.823650
 H         6.038269        8.442850       17.607670
 H         7.439159       12.446237       16.809227
 H         6.532675       13.703878       16.799631
 H         0.416854        8.707047       16.787851
 H         1.760696        8.687772       16.019573
