381
 generated by VMD
 O         9.087269        1.718093       12.245757
 O        12.993487        4.495763       10.073793
 O        14.287577        5.420062       12.311688
 O        12.949394        4.524270       14.520226
 O        10.389086        0.866603       14.487730
 O        10.372116        5.415197       14.458948
 O        12.957109        1.769428       10.061570
 O        12.969712        1.777676       14.567896
 O         9.044713        4.509501       16.644653
 O         9.050282        4.466070       12.261802
 O        10.380665        5.358962       10.048333
 O        10.407641        0.817400        9.977090
 O        14.258695        0.875175       12.325802
 O        14.274967        0.828562       16.782444
 O        14.276516        5.459901       16.732525
 O         9.050684        1.779735       16.687233
 O         9.076893        9.106551        3.285050
 O        12.956050       11.804893        1.107504
 O        14.243391       12.736137        3.345919
 O        12.929821       11.888841        5.607982
 O        10.397174        8.363854        5.610795
 O        10.419804       12.802929        5.797036
 O        12.971421        9.083112        1.122847
 O        12.979505        9.193788        5.617727
 O         9.138895       11.817751        7.889942
 O         9.067043       11.794332        3.381296
 O        10.362789       12.746453        1.094378
 O        10.388869        8.197282        1.043401
 O        14.266870        8.200341        3.381528
 O        14.238417        8.194524        7.848306
 O        14.284775       12.726534        7.864972
 O         9.088196        9.132671        7.851492
 O         1.342353        9.086982        3.359605
 O         5.166384       11.808743        1.056306
 O         6.410783       12.620527        3.371265
 O         5.165503       11.728084        5.623221
 O         2.599700        8.165269        5.614303
 O         2.604089       12.714666        5.586704
 O         5.187005        9.066859        1.047715
 O         5.207438        9.016536        5.609805
 O         1.319395       11.822218        7.838147
 O         1.319557       11.837811        3.333561
 O         2.593651       12.747909        1.087838
 O         2.611785        8.148395        1.115531
 O         6.470053        8.218543        3.329119
 O         6.536658        8.101527        7.836253
 O         6.501812       12.674528        7.841847
 O         1.306084        9.071455        7.849900
 O         1.333014        1.786566        3.311026
 O         5.162777        4.473186        1.035044
 O         6.381083        5.482275        3.291338
 O         5.196018        4.494000        5.601801
 O         2.580152        0.858420        5.568466
 O         2.607687        5.422492        5.617273
 O         5.223347        1.703112        1.077777
 O         5.165916        1.721366        5.600314
 O         1.318819        4.517186        7.870270
 O         1.355001        4.519091        3.343922
 O         2.612490        5.413743        1.089220
 O         2.607960        0.878292        1.056731
 O         6.395861        0.745514        3.336412
 O         6.486203        0.818582        7.793782
 O         6.549087        5.348192        7.819457
 O         1.324390        1.791382        7.820159
 O         9.015061        1.150913        3.538878
 O        13.032905        4.495894        1.038048
 O        14.306772        5.442724        3.278564
 O        13.143027        4.513783        5.576987
 O        10.183163        0.645506        5.735644
 O        10.778280        5.846265        6.197181
 O        12.983317        1.788527        1.053839
 O        13.037459        1.722409        5.608417
 O         9.089625        4.287348        7.886019
 O        10.433907        5.458783        0.883064
 O        10.359270        0.924801        0.959541
 O        14.274407        0.878494        3.271630
 O        14.297670        0.857751        7.839491
 O        14.288457        5.453590        7.858626
 O         9.198213        1.666988        7.752727
 O         1.294268        1.777090       12.307194
 O         5.199755        4.476986       10.035708
 O         6.479156        5.385428       12.277666
 O         5.181639        4.490062       14.512343
 O         2.594393        0.850076       14.535824
 O         2.617337        5.432657       14.576133
 O         5.189215        1.727988       10.061413
 O         5.171816        1.759380       14.482753
 O         1.306470        4.517405       16.794136
 O         1.342068        4.506879       12.338209
 O         2.629187        5.423450       10.106359
 O         2.585144        0.872679       10.069402
 O         6.505418        0.813453       12.263296
 O         6.466754        0.832702       16.726122
 O         6.454851        5.416614       16.737040
 O         1.303187        1.774212       16.769363
 O         9.094935        9.051085       12.253185
 O        12.999761       11.825701       10.127065
 O        14.281429       12.745440       12.359329
 O        12.960948       11.803858       14.564653
 O        10.399350        8.151582       14.494612
 O        10.381332       12.733142       14.526071
 O        12.972103        9.067418       10.116023
 O        12.971929        9.067994       14.563216
 O         9.096761       11.816657       16.762897
 O         9.085155       11.784336       12.304072
 O        10.419974       12.702023       10.117768
 O        10.392957        8.113453       10.022283
 O        14.278788        8.163250       12.340770
 O        14.262577        8.200346       16.812466
 O        14.249302       12.693138       16.811514
 O         9.079333        9.070348       16.726053
 O         1.328382        9.076207       12.318919
 O         5.160233       11.778307       10.067740
 O         6.496725       12.673727       12.286687
 O         5.187980       11.802072       14.515911
 O         2.635870        8.169106       14.570715
 O         2.607215       12.718478       14.579348
 O         5.191059        9.031977       10.052858
 O         5.225639        9.063402       14.497530
 O         1.302782       11.810542       16.809912
 O         1.326936       11.822850       12.332068
 O         2.593525       12.735187       10.086201
 O         2.604045        8.154254       10.086449
 O         6.526846        8.128221       12.261423
 O         6.491471        8.161327       16.762640
 O         6.488343       12.686803       16.755655
 O         1.333587        9.074028       16.822823
 H         9.573329        1.412196       13.020506
 H         9.561939        1.402025       11.473295
 H        13.465963        4.827532       10.845021
 H        13.445463        4.848678        9.298671
 H        15.191842        5.091040       12.347969
 H        13.835985        5.085245       13.094499
 H        12.933490        3.562504       14.549028
 H        12.030866        4.817122       14.500751
 H         9.924110        1.202808       15.262626
 H        11.292394        1.197726       14.539829
 H         9.905397        5.077733       13.687445
 H         9.883902        5.096141       15.228125
 H        12.977723        2.734427       10.051231
 H        13.442410        1.475404        9.284340
 H        13.438001        1.434551       15.336488
 H        13.440800        1.458686       13.791202
 H         8.143555        4.843727       16.711367
 H         9.513595        4.833409       17.421259
 H         8.135715        4.770143       12.265444
 H         9.026654        3.504590       12.259589
 H         9.946326        5.043901       10.847998
 H        11.291212        5.048231       10.078833
 H        10.441482       14.457309       10.043486
 H        11.318264        1.136866       10.014547
 H        13.818759        1.197491       11.533495
 H        15.162293        1.211078       12.297491
 H        13.822423        1.147780       17.570745
 H        14.253756       14.468307       16.818487
 H        14.257560        6.422427       16.735180
 H        13.799510        5.168160       15.948899
 H         8.139377        1.468648       16.704573
 H         9.016103        2.744348       16.687399
 H         9.513476        8.752106        2.502692
 H         8.177951        8.760512        3.280431
 H        12.935985       10.840022        1.117590
 H        12.042530       12.104095        1.105251
 H        14.251411       13.697443        3.291731
 H        13.787756       12.421006        2.557436
 H        13.384448       12.180730        4.809144
 H        12.958177       10.920762        5.601211
 H        10.475004        7.402265        5.722096
 H         9.933331        8.532868        4.787606
 H         9.984880       12.391142        6.566622
 H        11.331254       12.466359        5.743237
 H        13.392450        8.753448        1.923496
 H        12.067242        8.746930        1.116686
 H        13.391654        8.832039        6.409582
 H        12.063225        8.886871        5.614150
 H         9.122678       10.848614        7.901045
 H         9.584910       12.096134        8.699400
 H         9.520452       12.050168        4.179406
 H         9.088237       10.825648        3.348077
 H        10.339669       13.707074        1.079226
 H         9.901083       12.461499        1.886644
 H        10.392731        7.234417        1.002754
 H         9.931904        8.494011        0.250238
 H        13.836967        8.537536        4.173370
 H        15.171423        8.528510        3.393980
 H        13.814371        8.508706        8.653530
 H        15.146315        8.513866        7.868526
 H        15.186999       12.386046        7.833664
 H        13.842462       12.414389        7.070257
 H         9.571383        8.750836        8.593196
 H         9.547823        8.851298        7.048633
 H         1.788269        8.771095        2.565895
 H         1.352085       10.048280        3.320799
 H         4.265676       12.150590        1.072251
 H         5.583923       12.095859        1.873241
 H         5.985405       12.279912        4.167036
 H         7.320874       12.313183        3.390738
 H         5.179914       10.762980        5.650651
 H         5.635176       12.033732        6.404508
 H         3.513303        8.468929        5.593402
 H         2.177609        8.497650        4.814764
 H         3.498302       12.357840        5.577873
 H         2.167008       12.387858        4.792439
 H         5.182111       10.028572        1.017853
 H         5.655042        8.766562        0.260882
 H         5.668851        8.720304        4.815764
 H         5.691206        8.668309        6.365937
 H         1.784749       12.152989        8.614090
 H         1.788870       12.151220        7.064158
 H         1.745034       12.176522        2.537802
 H         0.411435       12.155510        3.318086
 H         2.585212       13.710990        1.053261
 H         2.132321       12.437256        0.300842
 H         2.632266        7.184681        1.112455
 H         3.528801        8.443782        1.095289
 H         6.447215        7.255554        3.308147
 H         6.017338        8.512429        2.531977
 H         7.427993        8.464619        7.859181
 H         6.080834        8.433125        8.616266
 H         7.419078       12.388501        7.867806
 H         6.512084       13.636201        7.823058
 H         1.329481       10.032956        7.825229
 H         1.763374        8.765736        7.058501
 H         1.323014        2.750830        3.326236
 H         0.415093        1.499173        3.289135
 H         5.216968        3.513873        1.070078
 H         5.605795        4.798162        1.825509
 H         7.288175        5.174097        3.216852
 H         6.029742        5.110646        4.107790
 H         4.283786        4.802513        5.607915
 H         5.163547        3.534320        5.587244
 H         2.135633        1.156685        4.766845
 H         2.573135       14.497537        5.553282
 H         2.147645        5.128871        6.410134
 H         2.594020        6.385283        5.632138
 H         5.650396        1.394397        0.272037
 H         4.308494        1.404989        1.039405
 H         4.251708        1.414160        5.588253
 H         5.567934        1.393869        4.790663
 H         0.419318        4.864132        7.890742
 H         1.760312        4.840491        8.662687
 H         1.831630        4.843566        2.571407
 H         1.814346        4.848044        4.123404
 H         3.510279        5.063231        1.046735
 H         2.156108        5.093018        0.304295
 H         2.152015        1.217779        1.833938
 H         2.136182        1.215308        0.287221
 H         6.326926       14.386310        3.310935
 H         5.996432        1.084096        2.523987
 H         6.033662        1.153464        7.008289
 H         7.379658        1.156924        7.770107
 H         6.562714        6.310632        7.808761
 H         6.079261        5.072865        7.024123
 H         1.330054        2.756049        7.813684
 H         1.768952        1.498365        7.017779
 H         9.687949        0.865498        4.909085
 H         8.045564        1.060868        3.462347
 H        13.489833        4.846177        0.266855
 H        13.482347        4.846729        1.814122
 H        15.227515        5.162095        3.298463
 H        14.304894        6.403920        3.317913
 H        13.531861        4.817362        4.750060
 H        13.106199        3.559019        5.536729
 H         9.766168        1.081638        6.573061
 H        10.288231       14.219881        5.805063
 H        11.527498        5.327567        5.911039
 H        10.163244        5.260514        6.626888
 H        12.986711        2.755109        1.044898
 H        12.062331        1.518364        1.015094
 H        13.483832        1.402474        6.405154
 H        12.138741        1.428226        5.663273
 H         9.523049        4.667021        8.659353
 H         8.202847        4.662451        7.853397
 H         9.925332        5.125697        1.628486
 H        11.322288        5.098650        0.984108
 H         9.890800        1.242651        0.175543
 H         9.905287        1.296275        1.704147
 H        13.821975        1.197635        4.054716
 H        13.793876        1.219137        2.507199
 H        14.332636       14.496734        7.858683
 H        15.210474        1.171297        7.835924
 H        13.878138        5.141216        7.044030
 H        14.246872        6.415459        7.834542
 H         9.171498        2.645912        7.791659
 H         9.630530        1.362566        8.569515
 H         1.751629        1.483166       11.512259
 H         1.322497        2.740849       12.303094
 H         5.673705        4.766416        9.247646
 H         5.204846        3.514937       10.025235
 H         6.010572        5.054094       11.504253
 H         6.001782        5.068989       13.052967
 H         4.279363        4.826279       14.549550
 H         5.625371        4.822422       15.301980
 H         2.153515        1.177828       13.744876
 H         3.498961        1.180735       14.502380
 H         2.155797        5.130622       15.366309
 H         2.612036        6.395519       14.598867
 H         5.662639        1.395284       10.833046
 H         5.651954        1.392162        9.289858
 H         5.641156        1.462403       13.697570
 H         5.190157        2.723357       14.476391
 H         0.394336        4.826860       16.770105
 H         1.276171        3.555255       16.784626
 H         1.805325        4.841197       13.114241
 H         1.812184        4.843890       11.567692
 H         2.650260        6.386580       10.099786
 H         3.542419        5.119864       10.075419
 H         2.161004        1.204204        9.270642
 H         3.495497        1.185830       10.051368
 H         6.518955       14.452495       12.280643
 H         7.423193        1.104787       12.265147
 H         6.464217       14.472475       16.707836
 H         6.004048        1.130960       15.936607
 H         6.021442        5.104627       17.538315
 H         6.454950        6.378657       16.776121
 H         1.744487        1.448849       15.977745
 H         0.406483        1.422451       16.752878
 H         9.530966        8.712729       11.463966
 H         8.193230        8.710385       12.238297
 H        13.471515       12.162747       10.897243
 H        13.469703       12.142780        9.349477
 H        13.814491       12.437249       13.143961
 H        14.260885       13.708411       12.377604
 H        12.045856       12.103292       14.551957
 H        12.940639       10.840207       14.559249
 H        10.378605        7.188211       14.470150
 H         9.943995        8.452965       13.701649
 H         9.916707       12.421241       13.742667
 H        10.377079       13.695978       14.491112
 H        13.431366        8.762362       10.906553
 H        12.986111       10.028471       10.142950
 H        12.071066        8.725297       14.566438
 H        13.397638        8.758261       15.370154
 H         9.559560       12.139230       17.540760
 H         9.563934       12.162460       15.994662
 H         9.070980       10.820253       12.290560
 H         8.165976       12.073552       12.294175
 H        11.326736       12.374392       10.151300
 H         9.969616       12.375232       10.906390
 H        11.307111        8.413180       10.052073
 H        10.412786        7.150744       10.011791
 H        14.274753        7.199862       12.350670
 H        13.819345        8.451487       13.137346
 H        15.170600        8.519683       16.833122
 H        13.834298        8.515765       17.615492
 H        13.776356       12.368353       16.037750
 H        13.778061       12.363186       17.584232
 H         9.545510        8.765377       15.941140
 H         9.101982       10.031851       16.709751
 H         1.302405       10.038538       12.323181
 H         0.413917        8.773383       12.334849
 H         5.601860       12.103574        9.277794
 H         4.262445       12.127313       10.052073
 H         6.020697       12.362295       13.064995
 H         6.014770       12.348331       11.518954
 H         4.283560       12.131439       14.555919
 H         5.632025       12.115649       15.311261
 H         2.193084        8.493861       13.780394
 H         3.544083        8.487207       14.527958
 H         2.592304       13.681718       14.590217
 H         2.145932       12.420274       15.370833
 H         5.161617        9.993947       10.057041
 H         4.274634        8.733928       10.059422
 H         5.229496       10.025880       14.477425
 H         5.686675        8.760697       13.708700
 H         0.381443       12.091731       16.808727
 H         1.299776       10.846936       16.816357
 H         1.764106       12.139496       13.130405
 H         0.424637       12.158187       12.363288
 H         2.575532       13.697803       10.108578
 H         2.144496       12.430118       10.882708
 H         2.138087        8.486809       10.861850
 H         2.129722        8.480316        9.314226
 H         6.050011        8.422662       11.477878
 H         6.500489        7.165390       12.256440
 H         7.400421        8.478890       16.739340
 H         6.066279        8.486862       15.963011
 H         7.395468       12.365524       16.780277
 H         6.053600       12.369092       17.553711
 H         1.805902        8.748680       16.049721
 H         1.796994        8.733443       17.596281
