381
 generated by VMD
 O         9.088276        1.784723       12.185182
 O        12.983586        4.537258       10.070636
 O        14.282132        5.437659       12.300643
 O        12.978812        4.538007       14.540196
 O        10.466258        0.802145       14.339941
 O        10.410678        5.502665       14.511420
 O        12.984975        1.800921       10.076166
 O        12.971444        1.786966       14.476387
 O         9.089072        4.634961       16.739830
 O         9.083678        4.516078       12.314487
 O        10.377581        5.404643       10.043945
 O        10.423316        0.859858        9.983604
 O        14.299984        0.860554       12.284660
 O        14.288154        0.828842       16.717203
 O        14.282077        5.432868       16.777269
 O         8.834699        1.913281       16.079243
 O         9.082282        9.005081        3.371555
 O        13.014087       11.807549        1.095250
 O        14.285591       12.681854        3.353065
 O        12.962177       11.804263        5.604702
 O        10.394115        8.153871        5.624300
 O        10.366780       12.712721        5.575569
 O        12.978162        9.071375        1.071405
 O        12.973058        9.082511        5.585525
 O         9.092072       11.810925        7.802162
 O         9.031599       11.739670        3.377518
 O        10.371286       12.575633        1.098935
 O        10.362163        8.197868        1.085494
 O        14.265172        8.171661        3.340688
 O        14.251441        8.143367        7.810331
 O        14.269718       12.715938        7.848076
 O         9.093731        9.074066        7.856778
 O         1.327415        9.034247        3.360905
 O         5.235809       11.944224        0.966457
 O         6.455879       12.717323        3.297477
 O         5.206626       11.818884        5.557190
 O         2.618620        8.132971        5.611145
 O         2.617759       12.688247        5.593321
 O         5.192859        9.134515        1.091982
 O         5.200093        9.077402        5.602738
 O         1.334717       11.782734        7.831779
 O         1.351063       11.767014        3.339529
 O         2.606475       12.674377        1.090513
 O         2.630816        8.183788        1.105377
 O         6.474827        8.164133        3.352902
 O         6.494436        8.181541        7.849336
 O         6.511652       12.720757        7.806003
 O         1.313190        9.033541        7.841856
 O         1.342828        1.749364        3.372303
 O         5.170850        4.480841        1.133902
 O         6.452554        5.440379        3.367839
 O         5.189446        4.532364        5.628302
 O         2.579001        0.829326        5.624617
 O         2.598425        5.403086        5.628543
 O         5.206155        1.710327        1.235812
 O         5.121416        1.803212        5.710516
 O         1.291548        4.479913        7.860820
 O         1.341912        4.487015        3.375846
 O         2.610728        5.422998        1.096125
 O         2.596338        0.805620        1.084379
 O         6.359621        0.868280        3.486370
 O         6.511767        0.860464        7.860960
 O         6.480046        5.443282        7.858801
 O         1.315354        1.745986        7.862478
 O         8.936062        1.820140        3.498477
 O        13.013988        4.645225        1.082413
 O        14.288372        5.451441        3.395212
 O        12.956950        4.478984        5.590456
 O        10.386125        0.853360        5.600672
 O        10.372304        5.418804        5.608528
 O        13.355924        1.857985        1.215250
 O        12.975761        1.752696        5.585290
 O         9.055006        4.491854        7.840606
 O         9.075635        4.573644        3.347172
 O        10.377403        5.466697        1.117626
 O        14.341507        0.844028        3.427928
 O        14.267100        0.845602        7.850101
 O        14.246432        5.399646        7.814126
 O         9.075859        1.758898        7.784295
 O         1.344186        1.748162       12.302175
 O         5.185912        4.505774       10.092350
 O         6.467769        5.386532       12.366856
 O         5.185391        4.384546       14.628274
 O         2.637311        0.796983       14.546260
 O         2.640939        5.364768       14.578635
 O         5.225566        1.766659       10.072617
 O         5.320809        1.697789       14.539753
 O         1.310780        4.511705       16.792965
 O         1.316874        4.492187       12.335234
 O         2.598014        5.391388       10.082732
 O         2.644436        0.820416       10.091853
 O         6.503174        0.892443       12.289738
 O         6.582705        0.721629       16.460409
 O         6.448333        5.409839       16.836781
 O         1.345596        1.775759       16.788815
 O         9.045316        9.089046       12.268705
 O        12.974290       11.796422       10.073383
 O        14.296673       12.716173       12.297849
 O        13.023913       11.812862       14.555437
 O        10.367307        8.229980       14.516696
 O        10.448550       12.685637       14.475064
 O        12.981669        9.056822       10.079307
 O        12.978204        9.085185       14.547264
 O         9.085578       11.763975       16.677341
 O         9.104005       11.834170       12.242635
 O        10.392823       12.731556       10.014231
 O        10.395557        8.141584       10.084094
 O        14.296346        8.173754       12.324074
 O        14.279243        8.178490       16.785633
 O        14.278508       12.721455       16.797455
 O         9.051579        9.049831       16.785093
 O         1.369751        9.050894       12.335807
 O         5.228769       11.767342       10.053797
 O         6.524810       12.709082       12.318733
 O         5.229222       11.795940       14.545934
 O         2.664347        8.121905       14.587893
 O         2.613953       12.684371       14.515893
 O         5.181283        9.036956       10.101838
 O         5.216978        9.087395       14.590024
 O         1.302012       11.793417       16.786037
 O         1.344355       11.784769       12.282790
 O         2.638011       12.683267       10.048002
 O         2.606835        8.127403       10.077887
 O         6.482319        8.127419       12.349298
 O         6.458671        8.154474       16.825310
 O         6.391796       12.892031       16.689308
 O         1.328374        9.050120       16.798000
 H         9.599778        1.444679       12.925243
 H         9.111559        2.746661       12.247399
 H        12.072451        4.846654       10.040216
 H        13.410576        4.851837        9.265079
 H        14.282110        6.400980       12.287284
 H        13.818873        5.149276       11.506370
 H        13.457367        4.870029       13.773402
 H        13.450071        4.850066       15.321482
 H        11.374500        1.129187       14.399590
 H        10.496545       14.441667       14.400708
 H        11.324574        5.196813       14.526614
 H        10.435068        6.465913       14.497793
 H        12.997753        2.763951       10.096916
 H        13.449260        1.494025       10.861707
 H        13.459481        1.500075       13.696789
 H        12.979811        2.749974       14.480451
 H         9.077145        3.693124       16.618196
 H         9.557909        4.981911       15.971310
 H         8.175929        4.832910       12.352708
 H         9.535727        4.872959       13.086672
 H         9.902379        5.069238        9.274610
 H         9.909349        5.082788       10.819407
 H         9.962807        1.206468       10.753443
 H        11.324315        1.199523       10.026001
 H        15.219531        1.147094       12.285176
 H        14.311447       14.499432       12.285871
 H        15.183383        1.176430       16.704554
 H        13.837699        1.177251       15.944546
 H        14.280432        6.395494       16.786306
 H        13.822819        5.158342       17.582481
 H         9.466394        1.501684       15.456243
 H         7.496925        1.062699       16.401541
 H         9.519964        8.685911        4.167377
 H         8.176519        8.680625        3.392141
 H        12.107619       12.130499        1.113855
 H        13.440022       12.133820        1.895939
 H        15.186972       12.347685        3.376957
 H        13.844787       12.362843        4.146225
 H        12.059458       12.140362        5.604463
 H        13.390745       12.142241        6.396990
 H         9.963295        8.494184        6.414751
 H        11.294974        8.495100        5.624488
 H        10.358020       13.675845        5.545614
 H         9.907529       12.405924        4.785917
 H        12.057724        8.789670        1.081571
 H        12.972107       10.035478        1.087963
 H        13.423721        8.786216        4.787589
 H        12.981411       10.046551        5.569594
 H         9.542700       12.107493        7.001771
 H         9.110296       10.848289        7.796323
 H         9.490664       12.008268        2.576689
 H         9.047959       10.776803        3.382797
 H        10.215117       13.520258        1.190247
 H         9.925805       12.326004        0.285147
 H        10.364752        7.234048        1.109023
 H         9.914538        8.481421        1.890083
 H        14.258886        7.207500        3.339765
 H        13.812787        8.456943        2.540453
 H        13.788149        8.470638        8.587729
 H        13.786245        8.489339        7.040031
 H        14.296781       13.679404        7.851624
 H        15.182185       12.411218        7.838461
 H         9.527696        8.736508        8.646965
 H         8.186541        8.752308        7.873551
 H         0.416073        8.721198        3.378770
 H         1.758061        8.697268        4.153371
 H         5.672492       12.235951        1.777213
 H         4.311567       12.210648        1.041351
 H         6.480487       13.678289        3.349014
 H         7.371361       12.415300        3.306024
 H         5.689238       12.150561        6.320994
 H         5.664067       12.143081        4.772607
 H         3.530624        8.442007        5.606536
 H         2.645832        7.169909        5.617498
 H         3.539872       12.408766        5.581511
 H         2.621739       13.651692        5.598917
 H         4.272353        8.846931        1.102974
 H         5.188827       10.093904        1.058120
 H         5.654274        8.772450        4.809947
 H         5.210282       10.040223        5.569562
 H         1.785880       12.075604        7.031837
 H         1.328792       10.820085        7.811741
 H         1.357028       10.804422        3.374578
 H         1.802244       12.076783        4.131888
 H         2.125623       12.350164        0.321813
 H         2.153609       12.336199        1.872211
 H         2.148145        8.504509        0.335964
 H         2.151242        8.487878        1.883960
 H         6.440857        7.201004        3.324566
 H         6.031464        8.485654        2.563309
 H         6.030685        8.511518        7.071807
 H         6.015104        8.503127        8.619477
 H         6.081315       12.370535        8.591558
 H         7.416203       12.387792        7.816388
 H         0.404769        8.714553        7.808712
 H         1.753691        8.703312        7.050969
 H         0.434069        1.415250        3.382268
 H         1.748958        1.407515        2.571747
 H         5.146792        3.521705        1.174722
 H         4.256467        4.787385        1.117423
 H         5.995934        5.104465        4.146363
 H         5.994577        5.082458        2.601466
 H         4.281046        4.852075        5.654018
 H         5.628351        4.876242        6.413620
 H         3.472763        1.188677        5.638564
 H         2.160257        1.160142        4.821228
 H         2.145733        5.068250        4.846296
 H         2.120081        5.068070        6.394070
 H         5.623267        1.415611        2.063418
 H         5.775864        1.398747        0.545516
 H         5.159051        2.765958        5.711065
 H         5.608864        1.497763        6.482931
 H         1.274807        3.516644        7.858424
 H         0.375584        4.778249        7.844888
 H         1.779775        4.794691        2.577281
 H         1.346596        3.523545        3.343081
 H         2.141305        5.133374        0.306855
 H         2.610096        6.385580        1.083557
 H         3.513524        1.085759        1.127660
 H         2.601941       14.444236        1.094917
 H         7.257241        1.218834        3.509473
 H         5.923576        1.187993        4.284914
 H         7.431349        1.150740        7.825332
 H         6.525346       14.499481        7.838837
 H         6.020740        5.149388        8.651687
 H         6.480013        6.406594        7.876002
 H         1.795935        1.410017        8.624805
 H         1.766964        1.413241        7.077845
 H         9.014925        2.773788        3.379558
 H         9.256476        1.414971        2.687883
 H        12.093270        4.917004        1.125119
 H        13.433777        4.940993        1.894684
 H        15.183149        5.098503        3.404936
 H        13.837579        5.094182        4.167538
 H        12.940685        3.514512        5.578432
 H        12.041027        4.774765        5.586382
 H         9.925406        1.201785        4.829253
 H        11.293173        1.174423        5.554506
 H         9.910702        5.116837        6.396736
 H        10.382518        6.381317        5.643079
 H        13.195840        2.795007        1.124687
 H        13.607695        1.522545        0.358013
 H        13.437709        1.424957        6.361888
 H        13.454944        1.417017        4.816145
 H         9.035352        3.528739        7.809316
 H         8.141649        4.795056        7.840416
 H         9.514204        4.885397        4.145880
 H         8.171158        4.897402        3.379918
 H         9.909142        5.125574        1.888251
 H         9.922896        5.128448        0.344452
 H        14.292875       14.488210        3.375680
 H        13.946175        1.193771        2.610697
 H        13.827782        1.191789        8.633326
 H        15.170631        1.177486        7.872771
 H        13.785679        5.091594        7.024703
 H        14.239717        6.362234        7.783722
 H         9.548534        1.439909        7.004102
 H         9.569026        1.438057        8.546184
 H         1.803844        1.411071       13.076073
 H         1.818255        1.415204       11.531218
 H         5.609473        4.827359       10.893855
 H         4.276571        4.824927       10.107776
 H         6.458265        6.349823       12.394412
 H         6.021190        5.077407       13.158971
 H         5.613196        4.750708       15.411174
 H         4.281176        4.724029       14.624979
 H         2.638077       14.433719       14.536350
 H         3.552079        1.073100       14.532237
 H         2.148576        5.051752       15.347664
 H         2.161700        5.056109       13.802119
 H         5.215009        2.729875       10.049141
 H         5.689795        1.469746        9.279997
 H         5.269349        2.668085       14.572175
 H         5.735172        1.452370       13.694075
 H         1.292394        3.548878       16.805397
 H         0.393401        4.810591       16.793966
 H         1.292355        3.530137       12.324524
 H         0.403448        4.799176       12.325407
 H         2.127924        5.067247       10.858194
 H         2.124653        5.057067        9.312015
 H         2.667233       14.459427       10.075974
 H         3.557263        1.124840       10.074323
 H         6.053665        1.202145       11.491344
 H         7.411291        1.211919       12.230959
 H         6.515884       14.288612       16.555996
 H         6.048673        1.099699       15.680568
 H         6.042713        5.065880       17.640478
 H         7.372833        5.144001       16.845789
 H         1.782733        1.426406       17.572849
 H         1.818411        1.426937       16.029711
 H         9.523685        8.763477       11.497705
 H         9.069968       10.050355       12.222785
 H        13.416180       12.125486        9.282328
 H        12.070799       12.127848       10.039712
 H        15.195256       12.372162       12.264915
 H        13.844189       12.384709       11.514465
 H        13.479432       12.146589       15.338016
 H        13.497662       12.143080       13.784997
 H         9.887768        8.554466       13.747404
 H         9.888389        8.526752       15.297470
 H        11.356537       12.363589       14.526119
 H         9.994903       12.358461       15.258464
 H        13.451550        8.769132       10.868635
 H        12.985791       10.020051       10.092847
 H        12.977413       10.048781       14.549458
 H        12.056430        8.809033       14.533169
 H         9.033611       10.800679       16.714756
 H         8.192439       12.094469       16.722666
 H         9.566455       12.163150       11.462430
 H         9.607976       12.127316       13.009235
 H        10.392870       13.694282        9.981493
 H         9.934334       12.425599        9.222784
 H        10.414674        7.178734       10.065567
 H        11.311570        8.439725       10.084766
 H        13.853200        8.501868       13.113987
 H        15.203421        8.493582       12.355960
 H        13.801864        8.503016       16.015202
 H        13.804457        8.500774       17.560764
 H        14.258818       13.686430       16.803703
 H        13.822567       12.427588       17.594957
 H         9.500282        8.747276       17.584242
 H         8.152390        8.709117       16.826618
 H         1.842578        8.716290       13.104017
 H         1.818436        8.706759       11.555520
 H         5.678963       12.071618       10.846123
 H         5.223582       10.804323       10.090791
 H         7.446982       12.425586       12.291094
 H         6.532733       13.669222       12.293967
 H         5.238186       10.829507       14.548692
 H         5.691266       12.081201       13.748837
 H         2.649122        7.159609       14.606843
 H         2.186789        8.423936       15.368854
 H         2.179190       12.358083       13.718434
 H         3.512262       12.343288       14.499175
 H         5.612763        8.697836       10.892341
 H         4.276607        8.704736       10.110505
 H         4.315854        8.743798       14.600354
 H         5.644376        8.749661       15.386111
 H         0.399776       12.136953       16.776327
 H         1.732311       12.118465       15.990994
 H         1.363529       10.821354       12.279052
 H         1.803068       12.076603       11.486852
 H         2.197973       12.361643        9.251782
 H         3.539841       12.347692       10.023088
 H         2.144202        8.433798        9.289404
 H         2.588142        7.164554       10.051615
 H         6.065254        8.479160       13.142352
 H         7.382492        8.471258       12.331984
 H         6.010283        8.474543       17.616484
 H         6.428331        7.192901       16.855555
 H         5.966622       12.579576       17.509026
 H         5.949862       12.463055       15.936592
 H         0.410477        8.754018       16.791336
 H         1.301506       10.012761       16.786964
