381
 generated by VMD
 O         9.113959        1.775468       12.309989
 O        12.948997        4.489692       10.104327
 O        14.264354        5.420036       12.318747
 O        12.979960        4.523907       14.556991
 O        10.405573        0.863896       14.554625
 O        10.377999        5.417549       14.584641
 O        12.962754        1.753607       10.028987
 O        12.991007        1.774567       14.510360
 O         9.094810        4.477395       16.824635
 O         9.062577        4.526425       12.336865
 O        10.367552        5.424824       10.095239
 O        10.377734        0.846526       10.047714
 O        14.273533        0.881248       12.264233
 O        14.293166        0.877936       16.743748
 O        14.293358        5.420904       16.821682
 O         9.092453        1.748526       16.776880
 O         9.143485        9.065000        3.285903
 O        12.971965       11.822914        1.086098
 O        14.220466       12.752972        3.357131
 O        12.928166       11.804966        5.586201
 O        10.356426        8.107467        5.567343
 O        10.330037       12.705730        5.581628
 O        12.890677        9.090639        0.969382
 O        12.903080        9.059106        5.568787
 O         9.061620       11.793921        7.835382
 O         9.092335       11.799205        3.320118
 O        10.389556       12.711315        1.086771
 O        10.341108        8.135288        1.020556
 O        14.100996        8.147065        3.230068
 O        14.142257        8.162805        7.870941
 O        14.215318       12.759993        7.830355
 O         9.151080        9.066442        7.843749
 O         1.069186        9.336944        2.696458
 O         5.170093       11.654433        1.121210
 O         6.465688       12.623795        3.303148
 O         5.180304       11.809153        5.565572
 O         2.569441       12.701527        5.513034
 O         5.050599        8.977901        1.055680
 O         5.349973        9.060877        5.613766
 O         1.317242       11.946344        7.793818
 O         1.269897       11.913301        3.265673
 O         2.642031       12.732353        1.031720
 O         2.756678        8.080883        1.199995
 O         6.625257        8.079360        3.345479
 O         6.575124        8.127192        7.891710
 O         6.475242       12.687092        7.831038
 O         1.191082        9.170611        8.258801
 O         1.296006        1.780813        3.285726
 O         5.234188        4.552169        1.176820
 O         6.524817        5.334881        3.413641
 O         5.290944        4.351557        5.635317
 O         2.604434        0.856117        5.552076
 O         2.653376        5.171865        5.582695
 O         5.222229        1.786807        1.064082
 O         5.240870        1.605964        5.560573
 O         1.309730        4.502237        7.895577
 O         1.345719        4.513913        3.288744
 O         2.558268        5.627368        1.199985
 O         2.635753        0.884820        1.052489
 O         6.513257        0.755573        3.268676
 O         6.528682        0.825966        7.837398
 O         6.522156        5.383147        7.870392
 O         1.352784        1.768595        7.818207
 O         9.090586        1.688181        3.314780
 O        12.967874        4.508499        1.087229
 O        14.247250        5.399038        3.338050
 O        12.942324        4.498098        5.598489
 O        10.387470        0.842941        5.569613
 O        10.354059        5.377028        5.578020
 O        12.972580        1.777006        1.040697
 O        12.964252        1.775667        5.575679
 O         9.101547        4.502448        7.847919
 O         9.091825        4.427187        3.341114
 O        10.378098        5.387646        1.126510
 O        10.405171        0.837990        1.064748
 O        14.225077        0.878371        3.323208
 O        14.284883        0.877548        7.793069
 O        14.241970        5.407783        7.860199
 O         9.111232        1.771829        7.795702
 O         1.324317        1.804320       12.323418
 O         5.208787        4.505302       10.102404
 O         6.463420        5.412220       12.344331
 O         5.181453        4.485956       14.601624
 O         2.613361        0.909239       14.553802
 O         2.611183        5.417515       14.621731
 O         5.245214        1.759898       10.080801
 O         5.228087        1.753942       14.537179
 O         1.405883        4.582411       16.927053
 O         1.315507        4.528676       12.335273
 O         2.614135        5.444661       10.144945
 O         2.647520        0.902789       10.084723
 O         6.539296        0.843491       12.319306
 O         6.503963        0.815563       16.783941
 O         6.522415        5.408273       16.833179
 O         1.333825        1.836799       16.792110
 O         9.073935        9.081767       12.325648
 O        12.939378       11.826311       10.072916
 O        14.258890       12.740693       12.277267
 O        12.955017       11.811242       14.528714
 O        10.355747        8.159270       14.566497
 O        10.377918       12.727257       14.544823
 O        12.956496        9.097474       10.114074
 O        12.940065        9.068952       14.508304
 O         9.088473       11.810547       16.787388
 O         9.073218       11.813377       12.316656
 O        10.347861       12.714343       10.066505
 O        10.399976        8.165685       10.102418
 O        14.297543        8.164917       12.328505
 O        14.261125        8.150424       16.726435
 O        14.263841       12.725234       16.776066
 O         9.002248        9.072661       16.759346
 O         1.354396        9.087362       12.336926
 O         5.198478       11.800663       10.090895
 O         6.487630       12.707275       12.318236
 O         5.170485       11.819979       14.576887
 O         2.640333        8.153909       14.487024
 O         2.592388       12.767293       14.545897
 O         5.249248        9.071493       10.088356
 O         5.196718        9.089032       14.570295
 O         1.330803       11.806973       16.743872
 O         1.329744       11.854137       12.312612
 O         2.621377       12.767082       10.088063
 O         2.644053        8.157887       10.184974
 O         6.521882        8.140592       12.348221
 O         6.440147        8.145502       16.860010
 O         6.487935       12.662702       16.836744
 O         1.357376        9.023369       16.642326
 H         9.101917        2.738093       12.332093
 H         9.575879        1.485229       13.103053
 H        12.035497        4.794242       10.105659
 H        12.924126        3.527243       10.080371
 H        15.168732        5.089170       12.294455
 H        13.820666        5.082979       11.532125
 H        13.442287        4.857910       13.779175
 H        13.460479        4.844292       15.325006
 H        11.321459        1.161834       14.539957
 H        10.424614       14.502923       14.544247
 H         9.954270        5.075284       15.378306
 H        11.283130        5.089402       14.588496
 H        12.062810        1.411301       10.005679
 H        13.405640        1.444922        9.231010
 H        13.442716        1.487903       13.708369
 H        12.999763        2.737331       14.506479
 H         9.551798        4.763569       17.622669
 H         9.103087        3.513556       16.825277
 H         8.154202        4.845384       12.360688
 H         9.497519        4.856207       13.129092
 H        10.375252        6.388134       10.115251
 H         9.902763        5.135776       10.887044
 H         9.935023        1.157185       10.843822
 H        10.351537       14.485644       10.073191
 H        14.261313       14.520193       12.254536
 H        13.811190        1.168190       11.468586
 H        14.274073       14.518025       16.737770
 H        13.833172        1.169644       15.948608
 H        15.198912        5.104006       16.872961
 H        13.838755        5.097154       17.607981
 H         8.192917        1.406967       16.754505
 H         9.535940        1.427197       15.983475
 H         9.589952        8.774277        2.483754
 H         9.150209       10.028393        3.283009
 H        13.388873       12.149649        1.890418
 H        12.063929       12.147283        1.099070
 H        14.193941       13.716514        3.373909
 H        13.765131       12.442798        4.148288
 H        12.011245       12.098637        5.587723
 H        12.906990       10.842002        5.582572
 H         9.911858        8.416142        4.772343
 H        10.331298        7.144227        5.548569
 H         9.878722       12.411776        6.380774
 H        10.341621       13.668633        5.604971
 H        12.925660       10.053819        0.987727
 H        13.376755        8.800776        0.191271
 H        13.316662        8.729551        4.768856
 H        12.003464        8.712535        5.566948
 H         9.069593       10.830183        7.835079
 H         8.138326       12.069001        7.829780
 H         8.174771       12.090188        3.340319
 H         9.505181       12.128687        4.126869
 H        10.380759       13.674991        1.099272
 H         9.928251       12.418136        1.880392
 H        11.239188        8.478462        0.966059
 H         9.877764        8.459360        0.241296
 H        14.965082        8.533778        3.155689
 H        13.629233        8.449505        2.445650
 H        14.183614        7.202826        7.835904
 H        13.728475        8.454320        7.055007
 H        13.757360       12.407578        7.061264
 H        13.756913       12.419154        8.605529
 H         9.595423        8.715446        7.066292
 H         9.622118        8.738537        8.617455
 H         2.201514        8.535238        1.863130
 H         1.177314       10.278258        2.939497
 H         5.615699       11.993964        1.909585
 H         4.291419       12.049462        1.111091
 H         6.470815       13.587434        3.296570
 H         6.011876       12.354801        4.111676
 H         5.186097       10.845956        5.582445
 H         4.256807       12.081019        5.554501
 H         2.124060       12.415327        6.321897
 H         2.577149       13.663409        5.541558
 H         5.090704        9.949469        1.081856
 H         5.553646        8.687495        0.276179
 H         5.794114        8.712835        4.834012
 H         4.492432        8.622537        5.606702
 H         1.755677       12.253036        8.592405
 H         0.406781       12.249226        7.837079
 H         1.729951       12.170100        4.077392
 H         0.367759       12.249828        3.337473
 H         2.169093       12.401584        0.260769
 H         2.134210       12.470705        1.806104
 H         3.725922        8.439836        1.174761
 H         2.674253        7.049003        1.250186
 H         7.515227        8.447511        3.281914
 H         6.131035        8.396099        2.594845
 H         6.146826        8.461336        7.096577
 H         7.479859        8.454242        7.867135
 H         6.008527       12.407362        7.036610
 H         6.491730       13.649983        7.819533
 H         0.312226        8.848237        8.069515
 H         1.217047       10.098930        8.038092
 H         0.392885        1.448306        3.272390
 H         1.737696        1.435415        2.504215
 H         5.678893        4.836315        1.988605
 H         4.348371        4.904659        1.222280
 H         6.536928        6.296479        3.450479
 H         6.071634        5.027404        4.209058
 H         4.367297        4.622717        5.629810
 H         5.283956        3.389449        5.614819
 H         2.132917        1.203514        4.790521
 H         2.160255        1.197643        6.336439
 H         2.177837        5.002568        6.405344
 H         2.798747        6.123163        5.544190
 H         4.303985        1.495881        1.067142
 H         5.206696        2.747091        1.103455
 H         4.319879        1.325089        5.536240
 H         5.657248        1.287147        4.754807
 H         0.410992        4.845831        7.897561
 H         1.748284        4.861925        8.672747
 H         1.333330        3.549279        3.271058
 H         1.793307        4.755543        4.111619
 H         2.134848        5.257894        0.407924
 H         2.122061        5.225429        1.976045
 H         2.173351        1.192504        0.265010
 H         2.640386       14.526031        1.012455
 H         7.418759        1.084207        3.271125
 H         6.083132        1.129326        2.493903
 H         7.427452        1.168899        7.800351
 H         6.087264        1.115305        7.031524
 H         6.073101        5.062936        7.080974
 H         6.507398        6.345743        7.835224
 H         1.345059        2.731951        7.860754
 H         1.809601        1.469481        8.610954
 H         9.561044        1.373901        4.095187
 H         9.577001        1.374579        2.545628
 H        13.399268        4.818678        1.890918
 H        12.059200        4.828421        1.118461
 H        14.245081        6.359799        3.319787
 H        15.167593        5.119662        3.346849
 H        12.035616        4.823081        5.571890
 H        13.383561        4.831019        4.812252
 H         9.950502        1.190772        6.355612
 H        11.291863        1.174130        5.591784
 H         9.889602        5.015192        4.816040
 H         9.895350        5.060656        6.364590
 H        13.441830        1.482771        0.253460
 H        12.983707        2.740043        1.030861
 H        13.441172        1.476080        6.358028
 H        12.963392        2.739259        5.604608
 H         8.192755        4.824989        7.874723
 H         9.535879        4.840070        8.638550
 H         9.076708        3.464151        3.326818
 H         8.173454        4.719574        3.365915
 H         9.917871        5.085227        1.917827
 H        10.342031        6.349401        1.122341
 H        11.305504        1.179334        1.033160
 H         9.956542        1.163735        0.277413
 H        13.758514        1.204841        2.547790
 H        13.767656        1.223545        4.098958
 H        15.204715        1.163040        7.805078
 H        14.288097       14.515663        7.801974
 H        13.780100        5.075360        7.085537
 H        13.769170        5.074757        8.629152
 H         9.555068        1.461927        8.592115
 H         9.117188        2.735048        7.834408
 H         0.413299        1.493082       12.296373
 H         1.289896        2.767419       12.320729
 H         5.665601        4.811258        9.310346
 H         5.229384        3.543490       10.073579
 H         6.004908        5.084979       11.560548
 H         5.990523        5.072723       13.109522
 H         5.211671        3.522485       14.600123
 H         5.659493        4.777353       15.383512
 H         2.177010        1.240672       13.759923
 H         3.526398        1.213060       14.519618
 H         2.648137        6.377021       14.554029
 H         3.522082        5.102991       14.606681
 H         5.720153        1.425223       10.848068
 H         5.703315        1.425738        9.302305
 H         5.704541        1.431452       13.763464
 H         5.685835        1.403607       15.308056
 H         1.394432        3.618814       16.887648
 H         1.830723        4.876743       16.111511
 H         1.799019        4.869596       11.570520
 H         1.775259        4.842505       13.118276
 H         3.524541        5.136030       10.112390
 H         2.647564        6.410211       10.133649
 H         2.207473        1.235901       10.872729
 H         3.554573        1.225811       10.108378
 H         6.551105       14.482529       12.314125
 H         7.455529        1.140628       12.315239
 H         6.053369        1.147267       17.567570
 H         6.481734       14.457379       16.837006
 H         6.104486        5.092690       17.639942
 H         7.427508        5.075136       16.842817
 H         1.772248        1.517741       15.994762
 H         0.431062        1.501906       16.758644
 H         9.507630        8.745306       13.116211
 H         8.174077        8.736141       12.340368
 H        12.931567       10.862253       10.081195
 H        12.020150       12.113437       10.070603
 H        13.792226       12.410365       13.050291
 H        13.782820       12.408845       11.506827
 H        13.414884       12.106299       15.320441
 H        12.966225       10.848218       14.542797
 H        10.385818        7.196509       14.571499
 H        11.269648        8.463064       14.545301
 H        11.279826       12.389844       14.517292
 H         9.935699       12.402465       13.752316
 H        13.454316        8.767223       10.867868
 H        13.392175        8.757374        9.321651
 H        13.408600        8.729509       15.276563
 H        13.422116        8.747188       13.736738
 H         9.564636       12.135853       17.558996
 H         9.550992       12.145869       16.011093
 H         8.155966       12.107677       12.320673
 H         9.051609       10.849774       12.321393
 H         9.876222       12.382670        9.294152
 H         9.880442       12.382874       10.840461
 H        11.303819        8.500015       10.139463
 H         9.945526        8.505033       10.880157
 H        14.314210        7.202210       12.313214
 H        15.213047        8.463806       12.319229
 H        15.175918        8.438034       16.693430
 H        14.277564        7.186952       16.760523
 H        13.834064       12.410558       17.578083
 H        15.165692       12.391589       16.789707
 H         9.041390       10.035449       16.750666
 H         9.474913        8.770855       15.974911
 H         1.824715        8.780014       11.546339
 H         1.348673       10.048740       12.300672
 H         5.215616       10.836598       10.070197
 H         5.646895       12.097181        9.291727
 H         6.008096       12.390678       13.089043
 H         6.019266       12.379421       11.540775
 H         5.610569       12.144958       15.368542
 H         4.272770       12.168373       14.588470
 H         2.198725        8.493138       13.693453
 H         3.541461        8.495883       14.476998
 H         2.587635       13.730587       14.525906
 H         2.145512       12.470480       13.743096
 H         5.715906        8.729216        9.317700
 H         5.712077        8.736925       10.861134
 H         5.636125        8.787857       15.369692
 H         5.201935       10.053046       14.590175
 H         1.352261       10.850634       16.675875
 H         1.773805       12.147268       15.955441
 H         1.767644       12.180082       11.517108
 H         0.419628       12.165274       12.273808
 H         2.671564       13.728535       10.095827
 H         3.526434       12.438926       10.080157
 H         3.544582        8.483570       10.107107
 H         2.141633        8.523628        9.435376
 H         6.052890        8.453816       13.126344
 H         6.481916        7.177856       12.364806
 H         6.494112        7.182406       16.839218
 H         7.349463        8.469476       16.834751
 H         6.068870       12.297582       17.620205
 H         7.400980       12.354215       16.835772
 H         1.845825        8.685350       17.380974
 H         1.821600        8.709929       15.847867
381
 generated by VMD
 O         9.113959        1.775468       12.309989
 O        12.948997        4.489692       10.104327
 O        14.264354        5.420036       12.318747
 O        12.979960        4.523907       14.556991
 O        10.405573        0.863896       14.554625
 O        10.377999        5.417549       14.584641
 O        12.962754        1.753607       10.028987
 O        12.991007        1.774567       14.510360
 O         9.094810        4.477395       16.824635
 O         9.062577        4.526425       12.336865
 O        10.367552        5.424824       10.095239
 O        10.377734        0.846526       10.047714
 O        14.273533        0.881248       12.264233
 O        14.293166        0.877936       16.743748
 O        14.293358        5.420904       16.821682
 O         9.092453        1.748526       16.776880
 O         9.143485        9.065000        3.285903
 O        12.971965       11.822914        1.086098
 O        14.220466       12.752972        3.357131
 O        12.928166       11.804966        5.586201
 O        10.356426        8.107467        5.567343
 O        10.330037       12.705730        5.581628
 O        12.890677        9.090639        0.969382
 O        12.903080        9.059106        5.568787
 O         9.061620       11.793921        7.835382
 O         9.092335       11.799205        3.320118
 O        10.389556       12.711315        1.086771
 O        10.341108        8.135288        1.020556
 O        14.100996        8.147065        3.230068
 O        14.142257        8.162805        7.870941
 O        14.215318       12.759993        7.830355
 O         9.151080        9.066442        7.843749
 O         1.069186        9.336944        2.696458
 O         5.170093       11.654433        1.121210
 O         6.465688       12.623795        3.303148
 O         5.180304       11.809153        5.565572
 O         2.569441       12.701527        5.513034
 O         5.050599        8.977901        1.055680
 O         5.349973        9.060877        5.613766
 O         1.317242       11.946344        7.793818
 O         1.269897       11.913301        3.265673
 O         2.642031       12.732353        1.031720
 O         2.756678        8.080883        1.199995
 O         6.625257        8.079360        3.345479
 O         6.575124        8.127192        7.891710
 O         6.475242       12.687092        7.831038
 O         1.191082        9.170611        8.258801
 O         1.296006        1.780813        3.285726
 O         5.234188        4.552169        1.176820
 O         6.524817        5.334881        3.413641
 O         5.290944        4.351557        5.635317
 O         2.604434        0.856117        5.552076
 O         2.653376        5.171865        5.582695
 O         5.222229        1.786807        1.064082
 O         5.240870        1.605964        5.560573
 O         1.309730        4.502237        7.895577
 O         1.345719        4.513913        3.288744
 O         2.558268        5.627368        1.199985
 O         2.635753        0.884820        1.052489
 O         6.513257        0.755573        3.268676
 O         6.528682        0.825966        7.837398
 O         6.522156        5.383147        7.870392
 O         1.352784        1.768595        7.818207
 O         9.090586        1.688181        3.314780
 O        12.967874        4.508499        1.087229
 O        14.247250        5.399038        3.338050
 O        12.942324        4.498098        5.598489
 O        10.387470        0.842941        5.569613
 O        10.354059        5.377028        5.578020
 O        12.972580        1.777006        1.040697
 O        12.964252        1.775667        5.575679
 O         9.101547        4.502448        7.847919
 O         9.091825        4.427187        3.341114
 O        10.378098        5.387646        1.126510
 O        10.405171        0.837990        1.064748
 O        14.225077        0.878371        3.323208
 O        14.284883        0.877548        7.793069
 O        14.241970        5.407783        7.860199
 O         9.111232        1.771829        7.795702
 O         1.324317        1.804320       12.323418
 O         5.208787        4.505302       10.102404
 O         6.463420        5.412220       12.344331
 O         5.181453        4.485956       14.601624
 O         2.613361        0.909239       14.553802
 O         2.611183        5.417515       14.621731
 O         5.245214        1.759898       10.080801
 O         5.228087        1.753942       14.537179
 O         1.405883        4.582411       16.927053
 O         1.315507        4.528676       12.335273
 O         2.614135        5.444661       10.144945
 O         2.647520        0.902789       10.084723
 O         6.539296        0.843491       12.319306
 O         6.503963        0.815563       16.783941
 O         6.522415        5.408273       16.833179
 O         1.333825        1.836799       16.792110
 O         9.073935        9.081767       12.325648
 O        12.939378       11.826311       10.072916
 O        14.258890       12.740693       12.277267
 O        12.955017       11.811242       14.528714
 O        10.355747        8.159270       14.566497
 O        10.377918       12.727257       14.544823
 O        12.956496        9.097474       10.114074
 O        12.940065        9.068952       14.508304
 O         9.088473       11.810547       16.787388
 O         9.073218       11.813377       12.316656
 O        10.347861       12.714343       10.066505
 O        10.399976        8.165685       10.102418
 O        14.297543        8.164917       12.328505
 O        14.261125        8.150424       16.726435
 O        14.263841       12.725234       16.776066
 O         9.002248        9.072661       16.759346
 O         1.354396        9.087362       12.336926
 O         5.198478       11.800663       10.090895
 O         6.487630       12.707275       12.318236
 O         5.170485       11.819979       14.576887
 O         2.640333        8.153909       14.487024
 O         2.592388       12.767293       14.545897
 O         5.249248        9.071493       10.088356
 O         5.196718        9.089032       14.570295
 O         1.330803       11.806973       16.743872
 O         1.329744       11.854137       12.312612
 O         2.621377       12.767082       10.088063
 O         2.644053        8.157887       10.184974
 O         6.521882        8.140592       12.348221
 O         6.440147        8.145502       16.860010
 O         6.487935       12.662702       16.836744
 O         1.357376        9.023369       16.642326
 H         9.101917        2.738093       12.332093
 H         9.575879        1.485229       13.103053
 H        12.035497        4.794242       10.105659
 H        12.924126        3.527243       10.080371
 H        15.168732        5.089170       12.294455
 H        13.820666        5.082979       11.532125
 H        13.442287        4.857910       13.779175
 H        13.460479        4.844292       15.325006
 H        11.321459        1.161834       14.539957
 H        10.424614       14.502923       14.544247
 H         9.954270        5.075284       15.378306
 H        11.283130        5.089402       14.588496
 H        12.062810        1.411301       10.005679
 H        13.405640        1.444922        9.231010
 H        13.442716        1.487903       13.708369
 H        12.999763        2.737331       14.506479
 H         9.551798        4.763569       17.622669
 H         9.103087        3.513556       16.825277
 H         8.154202        4.845384       12.360688
 H         9.497519        4.856207       13.129092
 H        10.375252        6.388134       10.115251
 H         9.902763        5.135776       10.887044
 H         9.935023        1.157185       10.843822
 H        10.351537       14.485644       10.073191
 H        14.261313       14.520193       12.254536
 H        13.811190        1.168190       11.468586
 H        14.274073       14.518025       16.737770
 H        13.833172        1.169644       15.948608
 H        15.198912        5.104006       16.872961
 H        13.838755        5.097154       17.607981
 H         8.192917        1.406967       16.754505
 H         9.535940        1.427197       15.983475
 H         9.589952        8.774277        2.483754
 H         9.150209       10.028393        3.283009
 H        13.388873       12.149649        1.890418
 H        12.063929       12.147283        1.099070
 H        14.193941       13.716514        3.373909
 H        13.765131       12.442798        4.148288
 H        12.011245       12.098637        5.587723
 H        12.906990       10.842002        5.582572
 H         9.911858        8.416142        4.772343
 H        10.331298        7.144227        5.548569
 H         9.878722       12.411776        6.380774
 H        10.341621       13.668633        5.604971
 H        12.925660       10.053819        0.987727
 H        13.376755        8.800776        0.191271
 H        13.316662        8.729551        4.768856
 H        12.003464        8.712535        5.566948
 H         9.069593       10.830183        7.835079
 H         8.138326       12.069001        7.829780
 H         8.174771       12.090188        3.340319
 H         9.505181       12.128687        4.126869
 H        10.380759       13.674991        1.099272
 H         9.928251       12.418136        1.880392
 H        11.239188        8.478462        0.966059
 H         9.877764        8.459360        0.241296
 H        14.965082        8.533778        3.155689
 H        13.629233        8.449505        2.445650
 H        14.183614        7.202826        7.835904
 H        13.728475        8.454320        7.055007
 H        13.757360       12.407578        7.061264
 H        13.756913       12.419154        8.605529
 H         9.595423        8.715446        7.066292
 H         9.622118        8.738537        8.617455
 H         2.201514        8.535238        1.863130
 H         1.177314       10.278258        2.939497
 H         5.615699       11.993964        1.909585
 H         4.291419       12.049462        1.111091
 H         6.470815       13.587434        3.296570
 H         6.011876       12.354801        4.111676
 H         5.186097       10.845956        5.582445
 H         4.256807       12.081019        5.554501
 H         2.124060       12.415327        6.321897
 H         2.577149       13.663409        5.541558
 H         5.090704        9.949469        1.081856
 H         5.553646        8.687495        0.276179
 H         5.794114        8.712835        4.834012
 H         4.492432        8.622537        5.606702
 H         1.755677       12.253036        8.592405
 H         0.406781       12.249226        7.837079
 H         1.729951       12.170100        4.077392
 H         0.367759       12.249828        3.337473
 H         2.169093       12.401584        0.260769
 H         2.134210       12.470705        1.806104
 H         3.725922        8.439836        1.174761
 H         2.674253        7.049003        1.250186
 H         7.515227        8.447511        3.281914
 H         6.131035        8.396099        2.594845
 H         6.146826        8.461336        7.096577
 H         7.479859        8.454242        7.867135
 H         6.008527       12.407362        7.036610
 H         6.491730       13.649983        7.819533
 H         0.312226        8.848237        8.069515
 H         1.217047       10.098930        8.038092
 H         0.392885        1.448306        3.272390
 H         1.737696        1.435415        2.504215
 H         5.678893        4.836315        1.988605
 H         4.348371        4.904659        1.222280
 H         6.536928        6.296479        3.450479
 H         6.071634        5.027404        4.209058
 H         4.367297        4.622717        5.629810
 H         5.283956        3.389449        5.614819
 H         2.132917        1.203514        4.790521
 H         2.160255        1.197643        6.336439
 H         2.177837        5.002568        6.405344
 H         2.798747        6.123163        5.544190
 H         4.303985        1.495881        1.067142
 H         5.206696        2.747091        1.103455
 H         4.319879        1.325089        5.536240
 H         5.657248        1.287147        4.754807
 H         0.410992        4.845831        7.897561
 H         1.748284        4.861925        8.672747
 H         1.333330        3.549279        3.271058
 H         1.793307        4.755543        4.111619
 H         2.134848        5.257894        0.407924
 H         2.122061        5.225429        1.976045
 H         2.173351        1.192504        0.265010
 H         2.640386       14.526031        1.012455
 H         7.418759        1.084207        3.271125
 H         6.083132        1.129326        2.493903
 H         7.427452        1.168899        7.800351
 H         6.087264        1.115305        7.031524
 H         6.073101        5.062936        7.080974
 H         6.507398        6.345743        7.835224
 H         1.345059        2.731951        7.860754
 H         1.809601        1.469481        8.610954
 H         9.561044        1.373901        4.095187
 H         9.577001        1.374579        2.545628
 H        13.399268        4.818678        1.890918
 H        12.059200        4.828421        1.118461
 H        14.245081        6.359799        3.319787
 H        15.167593        5.119662        3.346849
 H        12.035616        4.823081        5.571890
 H        13.383561        4.831019        4.812252
 H         9.950502        1.190772        6.355612
 H        11.291863        1.174130        5.591784
 H         9.889602        5.015192        4.816040
 H         9.895350        5.060656        6.364590
 H        13.441830        1.482771        0.253460
 H        12.983707        2.740043        1.030861
 H        13.441172        1.476080        6.358028
 H        12.963392        2.739259        5.604608
 H         8.192755        4.824989        7.874723
 H         9.535879        4.840070        8.638550
 H         9.076708        3.464151        3.326818
 H         8.173454        4.719574        3.365915
 H         9.917871        5.085227        1.917827
 H        10.342031        6.349401        1.122341
 H        11.305504        1.179334        1.033160
 H         9.956542        1.163735        0.277413
 H        13.758514        1.204841        2.547790
 H        13.767656        1.223545        4.098958
 H        15.204715        1.163040        7.805078
 H        14.288097       14.515663        7.801974
 H        13.780100        5.075360        7.085537
 H        13.769170        5.074757        8.629152
 H         9.555068        1.461927        8.592115
 H         9.117188        2.735048        7.834408
 H         0.413299        1.493082       12.296373
 H         1.289896        2.767419       12.320729
 H         5.665601        4.811258        9.310346
 H         5.229384        3.543490       10.073579
 H         6.004908        5.084979       11.560548
 H         5.990523        5.072723       13.109522
 H         5.211671        3.522485       14.600123
 H         5.659493        4.777353       15.383512
 H         2.177010        1.240672       13.759923
 H         3.526398        1.213060       14.519618
 H         2.648137        6.377021       14.554029
 H         3.522082        5.102991       14.606681
 H         5.720153        1.425223       10.848068
 H         5.703315        1.425738        9.302305
 H         5.704541        1.431452       13.763464
 H         5.685835        1.403607       15.308056
 H         1.394432        3.618814       16.887648
 H         1.830723        4.876743       16.111511
 H         1.799019        4.869596       11.570520
 H         1.775259        4.842505       13.118276
 H         3.524541        5.136030       10.112390
 H         2.647564        6.410211       10.133649
 H         2.207473        1.235901       10.872729
 H         3.554573        1.225811       10.108378
 H         6.551105       14.482529       12.314125
 H         7.455529        1.140628       12.315239
 H         6.053369        1.147267       17.567570
 H         6.481734       14.457379       16.837006
 H         6.104486        5.092690       17.639942
 H         7.427508        5.075136       16.842817
 H         1.772248        1.517741       15.994762
 H         0.431062        1.501906       16.758644
 H         9.507630        8.745306       13.116211
 H         8.174077        8.736141       12.340368
 H        12.931567       10.862253       10.081195
 H        12.020150       12.113437       10.070603
 H        13.792226       12.410365       13.050291
 H        13.782820       12.408845       11.506827
 H        13.414884       12.106299       15.320441
 H        12.966225       10.848218       14.542797
 H        10.385818        7.196509       14.571499
 H        11.269648        8.463064       14.545301
 H        11.279826       12.389844       14.517292
 H         9.935699       12.402465       13.752316
 H        13.454316        8.767223       10.867868
 H        13.392175        8.757374        9.321651
 H        13.408600        8.729509       15.276563
 H        13.422116        8.747188       13.736738
 H         9.564636       12.135853       17.558996
 H         9.550992       12.145869       16.011093
 H         8.155966       12.107677       12.320673
 H         9.051609       10.849774       12.321393
 H         9.876222       12.382670        9.294152
 H         9.880442       12.382874       10.840461
 H        11.303819        8.500015       10.139463
 H         9.945526        8.505033       10.880157
 H        14.314210        7.202210       12.313214
 H        15.213047        8.463806       12.319229
 H        15.175918        8.438034       16.693430
 H        14.277564        7.186952       16.760523
 H        13.834064       12.410558       17.578083
 H        15.165692       12.391589       16.789707
 H         9.041390       10.035449       16.750666
 H         9.474913        8.770855       15.974911
 H         1.824715        8.780014       11.546339
 H         1.348673       10.048740       12.300672
 H         5.215616       10.836598       10.070197
 H         5.646895       12.097181        9.291727
 H         6.008096       12.390678       13.089043
 H         6.019266       12.379421       11.540775
 H         5.610569       12.144958       15.368542
 H         4.272770       12.168373       14.588470
 H         2.198725        8.493138       13.693453
 H         3.541461        8.495883       14.476998
 H         2.587635       13.730587       14.525906
 H         2.145512       12.470480       13.743096
 H         5.715906        8.729216        9.317700
 H         5.712077        8.736925       10.861134
 H         5.636125        8.787857       15.369692
 H         5.201935       10.053046       14.590175
 H         1.352261       10.850634       16.675875
 H         1.773805       12.147268       15.955441
 H         1.767644       12.180082       11.517108
 H         0.419628       12.165274       12.273808
 H         2.671564       13.728535       10.095827
 H         3.526434       12.438926       10.080157
 H         3.544582        8.483570       10.107107
 H         2.141633        8.523628        9.435376
 H         6.052890        8.453816       13.126344
 H         6.481916        7.177856       12.364806
 H         6.494112        7.182406       16.839218
 H         7.349463        8.469476       16.834751
 H         6.068870       12.297582       17.620205
 H         7.400980       12.354215       16.835772
 H         1.845825        8.685350       17.380974
 H         1.821600        8.709929       15.847867
