381
 generated by VMD
 O         8.995470        1.773322       12.366969
 O        13.009301        4.536657        9.801691
 O        14.257670        5.435236       12.261119
 O        12.982952        4.469944       14.561081
 O        10.383281        0.864749       14.576317
 O        10.387945        5.398951       14.545197
 O        12.669612        1.959354       10.639621
 O        13.001451        1.732463       14.616578
 O         9.081935        4.506927       16.790970
 O         9.108172        4.541246       12.268639
 O        10.475564        5.446877        9.985527
 O        10.271015        0.814821       10.140594
 O        14.363547        0.771769       12.446400
 O        14.275132        0.835581       16.841274
 O        14.257314        5.395021       16.830513
 O         9.076122        1.762808       16.812487
 O         9.061668        9.032726        3.316093
 O        12.990424       11.799097        1.093618
 O        14.295582       12.731570        3.288651
 O        12.874828       11.806447        5.463491
 O        10.342561        8.148722        5.586782
 O        10.336037       12.724290        5.563194
 O        12.951675        9.071460        1.081844
 O        12.929502        9.041118        5.500925
 O         9.085948       11.819989        7.820979
 O         9.064286       11.774803        3.311891
 O        10.400674       12.695522        1.100200
 O        10.368636        8.169197        1.070987
 O        14.263859        8.147719        3.287580
 O        14.298869        8.198783        7.784169
 O        14.349226       12.261284        7.827709
 O         9.050482        9.090607        7.810707
 O         1.334282        9.046697        3.324288
 O         5.204419       11.806538        1.105451
 O         6.497379       12.722788        3.339880
 O         5.221638       11.855986        5.599969
 O         2.646919        8.168982        5.553912
 O         2.646694       12.737273        5.606384
 O         5.186050        9.078140        1.115358
 O         5.208114        9.126223        5.571625
 O         1.391492       11.766643        7.815852
 O         1.350130       11.805684        3.359931
 O         2.609175       12.681135        1.088726
 O         2.609791        8.143996        1.079884
 O         6.465940        8.156423        3.346099
 O         6.466336        8.176747        7.816221
 O         6.506713       12.737583        7.856351
 O         1.348814        8.981101        7.818254
 O         1.355192        1.796190        3.333186
 O         5.198243        4.483408        1.121891
 O         6.474780        5.420803        3.368830
 O         5.152691        4.531580        5.615223
 O         2.703339        0.873480        5.518773
 O         2.578403        5.453072        5.645009
 O         5.184055        1.746288        1.092335
 O         5.273649        1.803369        5.556068
 O         1.163590        4.539383        7.740775
 O         1.317654        4.519648        3.364748
 O         2.618398        5.407574        1.117624
 O         2.614602        0.822486        1.090219
 O         6.507136        0.855482        3.307410
 O         6.525932        0.872793        7.793678
 O         6.490835        5.422924        7.839178
 O         1.440057        1.881516        7.723105
 O         9.075336        1.772108        3.330894
 O        12.959489        4.491590        1.126096
 O        14.280260        5.429679        3.376686
 O        13.072186        4.562907        5.609161
 O        10.360339        0.857785        5.586556
 O        10.356379        5.401100        5.568447
 O        12.962128        1.764265        1.094577
 O        12.904768        1.912162        5.418327
 O         9.079002        4.494282        7.832147
 O         9.069724        4.527895        3.332117
 O        10.372948        5.433028        1.086865
 O        10.375515        0.834566        1.116099
 O        14.301208        0.877232        3.269355
 O        14.288445        5.180104        7.687498
 O         9.109099        1.762703        7.833815
 O         1.371742        1.733008       12.288209
 O         5.201661        4.515152       10.083776
 O         6.502656        5.442739       12.315495
 O         5.216856        4.516063       14.560517
 O         2.617475        0.839482       14.562296
 O         2.612032        5.376595       14.566374
 O         5.218712        1.767758       10.023273
 O         5.191330        1.774773       14.559488
 O         1.328981        4.501691       16.822128
 O         1.315757        4.484056       12.333021
 O         2.570159        5.357228       10.083640
 O         2.626111        0.874695       10.023527
 O         6.430279        0.850978       12.306729
 O         6.486705        0.857764       16.791264
 O         6.489254        5.408939       16.819744
 O         1.322811        1.753990       16.799994
 O         9.090039        9.074770       12.292405
 O        12.890375       11.760721       10.184284
 O        14.311464       12.643738       12.378142
 O        12.932866       11.773612       14.589507
 O        10.386280        8.154263       14.534377
 O        10.347112       12.716471       14.581941
 O        12.966275        9.006094       10.087046
 O        12.978618        9.030251       14.567677
 O         9.073520       11.806957       16.821787
 O         9.052658       11.803119       12.348418
 O        10.350025       12.691899       10.093301
 O        10.355330        8.169057       10.027044
 O        14.299268        8.150269       12.315597
 O        14.264955        8.135880       16.813385
 O        14.282657       12.701154       16.788950
 O         9.073071        9.075790       16.775394
 O         1.353404        9.051513       12.311996
 O         5.196457       11.792487       10.082021
 O         6.464701       12.714962       12.328377
 O         5.200024       11.786493       14.574797
 O         2.626377        8.125852       14.563293
 O         2.612700       12.690577       14.552941
 O         5.195764        9.039541       10.073582
 O         5.211478        9.041726       14.583029
 O         1.322358       11.771087       16.783974
 O         1.371989       11.777892       12.289125
 O         2.617948       12.714274       10.042217
 O         2.627384        8.100711       10.085936
 O         6.505041        8.173531       12.325344
 O         6.492205        8.144576       16.839794
 O         6.492637       12.725151       16.814016
 O         1.316430        9.038326       16.785860
 H         8.077020        1.481207       12.368875
 H         8.990464        2.733580       12.327698
 H        13.793838        4.865645        8.497154
 H        12.106794        4.891815        9.842597
 H        14.266427        6.401064       12.270986
 H        13.845664        5.176842       11.439061
 H        13.013358        3.506418       14.551795
 H        13.423965        4.771611       13.763908
 H         9.932333        1.200711       13.795968
 H        11.290733        1.184219       14.549302
 H         9.940869        5.079121       15.336363
 H        11.287024        5.057694       14.577669
 H        11.825330        1.521933       10.445872
 H        12.930911        3.602058        9.986668
 H        13.439466        1.422015       15.418041
 H        13.511023        1.372893       13.883774
 H         9.518469        4.841593       17.581484
 H         8.175139        4.830585       16.818188
 H         9.576777        4.851192       13.051241
 H         9.597061        4.857930       11.505652
 H        10.409321        6.409436        9.985697
 H         9.967527        5.134406        9.227748
 H        10.294831       14.452518       10.139921
 H         9.761437        1.088213       10.910261
 H        15.259204        1.117604       12.360104
 H        13.843441        1.152625       11.744478
 H        15.176947        1.173170       16.855244
 H        13.833676        1.167389       17.631628
 H        13.786591        5.058920       17.601042
 H        13.795703        5.065156       16.054010
 H         9.089450        2.725426       16.792856
 H         9.544037        1.465657       16.025429
 H         8.153898        8.711504        3.345787
 H         9.495719        8.713706        4.113554
 H        13.457099       12.121929        0.315956
 H        13.470224       12.134179        1.861129
 H        14.320911       13.693838        3.307131
 H        15.208597       12.430295        3.332701
 H        12.908623       10.848097        5.429363
 H        13.381404       12.131467        4.713605
 H         9.882290        8.462271        6.372984
 H        10.321176        7.187528        5.609978
 H         9.893381       12.386595        4.778715
 H        11.245262       12.400168        5.517696
 H        12.031536        8.786882        1.079249
 H        12.946800       10.035851        1.086409
 H        13.378318        8.774253        6.305118
 H        12.025133        8.715193        5.559459
 H         9.547510       12.155267        7.043342
 H         9.560996       12.140945        8.594855
 H         9.539216       12.075564        2.530144
 H         9.075554       10.812543        3.292761
 H        11.318979       12.403729        1.098948
 H        10.415941       13.658415        1.112106
 H         9.898533        8.497271        0.297072
 H         9.888347        8.479327        1.846288
 H        13.795213        8.479827        2.513330
 H        13.783753        8.473516        4.056517
 H        14.346820        7.251546        7.759635
 H        15.216411        8.509364        7.794132
 H        13.800348       12.195199        7.049824
 H        13.795065       12.162850        8.597724
 H         8.131293        8.802977        7.809945
 H         9.045121       10.055039        7.803360
 H         1.763344        8.718010        2.526738
 H         0.425260        8.732460        3.296813
 H         5.674351       12.143624        0.335321
 H         5.667145       12.136229        1.883636
 H         6.065111       12.410681        4.142645
 H         7.396250       12.376641        3.351939
 H         4.310906       12.175195        5.619862
 H         5.650576       12.186080        6.396148
 H         3.541699        8.526617        5.535848
 H         2.198558        8.492403        4.764216
 H         2.171732       12.407828        6.379922
 H         2.174951       12.409392        4.834776
 H         4.271437        8.776689        1.097969
 H         5.166342       10.041736        1.112388
 H         5.225415       10.089812        5.604621
 H         5.650279        8.812276        6.367298
 H         0.446478       11.996965        7.818089
 H         1.410565       10.807969        7.816617
 H         1.352086       10.844347        3.337172
 H         1.797023       12.097461        2.558645
 H         3.519217       12.367138        1.070135
 H         2.178328       12.343346        0.296789
 H         2.150522        8.434078        0.284305
 H         2.611269        7.180869        1.068994
 H         5.998817        8.488823        2.571563
 H         6.012351        8.515596        4.116592
 H         6.016017        8.462177        8.619177
 H         6.471040        7.214390        7.833146
 H         7.410579       12.404449        7.866074
 H         6.071396       12.395230        8.643879
 H         1.819873        8.657640        8.592369
 H         1.832295        8.684539        7.039859
 H         1.822796        1.455377        4.104790
 H         1.814904        1.452031        2.561121
 H         5.652009        4.779885        1.917517
 H         5.207563        3.519979        1.133469
 H         6.009984        5.129399        4.160100
 H         6.449586        6.384112        3.374652
 H         5.627848        4.819642        6.401511
 H         5.194731        3.568104        5.607749
 H         3.623772        1.154529        5.524386
 H         2.695283       14.513224        5.562834
 H         3.486822        5.128512        5.646229
 H         2.631261        6.415487        5.599586
 H         4.281032        1.409424        1.072537
 H         5.619529        1.424583        0.296139
 H         5.736053        1.459736        6.328393
 H         5.736572        1.470076        4.780134
 H         1.668284        4.891392        6.988806
 H         1.276474        3.571657        7.709818
 H         1.331796        3.554283        3.378914
 H         1.764256        4.815235        4.163139
 H         3.520956        5.071145        1.138175
 H         2.186046        5.088647        1.917047
 H         2.591049       14.461865        1.075401
 H         2.153746        1.124803        0.301027
 H         6.495224       14.494138        3.304121
 H         6.031156        1.142404        2.520443
 H         7.445949        1.158525        7.807179
 H         6.534419       14.511769        7.818412
 H         7.391571        5.084032        7.856622
 H         6.056800        5.100272        8.635613
 H         1.875482        1.526223        6.935604
 H         0.513270        1.625973        7.625281
 H         8.159420        1.472213        3.319386
 H         9.053158        2.733714        3.333049
 H        13.420114        4.785588        1.917013
 H        12.962482        3.527149        1.143862
 H        15.196737        5.128427        3.362058
 H        14.297969        6.393434        3.328768
 H        13.000462        3.594846        5.522662
 H        13.515001        4.881335        4.804662
 H        10.356842       14.496358        5.558260
 H         9.900431        1.157907        4.796269
 H         9.927786        5.079309        4.765391
 H        11.265074        5.102284        5.542033
 H        13.420677        1.429453        1.875761
 H        12.062339        1.423240        1.125910
 H        13.447272        1.634957        6.168283
 H        12.035484        1.508602        5.535672
 H         9.097758        3.529849        7.822062
 H         9.520621        4.782564        7.027638
 H         9.494972        4.858229        2.533741
 H         8.164549        4.857896        3.327583
 H        11.284097        5.123157        1.103704
 H        10.404431        6.395801        1.075551
 H         9.906224        1.171329        1.887544
 H         9.907492        1.165759        0.343280
 H        13.841479        1.219991        4.041154
 H        15.204876        1.207187        3.323262
 H        15.265286        4.869856        7.697638
 H        13.807984        4.883716        6.828477
 H         9.554559        1.416696        8.612434
 H         9.580724        1.428028        7.061508
 H         1.364493        2.694501       12.279268
 H         1.813882        1.448047       11.479391
 H         5.627246        4.856166       10.877498
 H         4.289558        4.817976       10.098701
 H         7.418398        5.149117       12.290915
 H         6.524468        6.406645       12.317525
 H         5.680496        4.842488       15.339373
 H         5.686656        4.856781       13.792345
 H         3.520767        1.173810       14.551858
 H         2.200607        1.159621       13.755477
 H         2.186310        5.052830       15.367709
 H         3.521491        5.059590       14.583248
 H         5.685318        1.480818        9.230458
 H         5.229768        2.729698       10.023310
 H         5.627288        1.470214       13.756083
 H         5.210651        2.737267       14.539214
 H         0.422687        4.825046       16.843662
 H         1.761542        4.827651       17.618912
 H         1.755079        4.806314       13.128651
 H         0.416842        4.823974       12.348249
 H         2.110421        5.024674       10.863658
 H         2.082283        5.051694        9.319132
 H         2.197019        1.205817        9.228845
 H         3.533766        1.194502        9.995975
 H         5.996024        1.140297       11.496955
 H         6.427110       14.489322       12.297661
 H         7.392148        1.186016       16.779860
 H         6.058223        1.195766       15.997654
 H         6.033645        5.098889       17.609472
 H         6.475333        6.371834       16.851534
 H         1.773876        1.456215       16.002697
 H         1.340154        2.716252       16.788010
 H         9.091371       10.038059       12.331624
 H         9.553304        8.766224       13.078159
 H        13.399427       12.064795       10.940763
 H        12.933828       10.801732       10.186591
 H        13.836565       12.354154       13.163507
 H        14.323059       13.604984       12.404468
 H        12.018063       12.072257       14.579642
 H        12.917602       10.811257       14.586405
 H        11.306272        8.439655       14.547756
 H        10.400511        7.192005       14.542629
 H        10.356882       13.678527       14.599626
 H         9.893757       12.428349       15.381838
 H        13.399716        8.738562        9.273765
 H        12.053802        8.702119       10.037961
 H        13.462281        8.720454       13.795851
 H        13.447005        8.703371       15.343586
 H         9.519289       12.125433       17.614592
 H         8.170142       12.139997       16.849512
 H         9.486128       12.144652       13.137937
 H         8.147734       12.132484       12.362052
 H         9.904630       12.357818       10.878104
 H        11.257233       12.362862       10.135233
 H         9.878940        8.513721        9.262884
 H         9.898915        8.497229       10.809591
 H        13.851712        8.476535       11.527375
 H        15.201263        8.489077       12.291020
 H        14.249650        7.173615       16.845221
 H        13.796495        8.447709       17.595617
 H        13.800633       12.404528       16.010139
 H        14.265486       13.664075       16.783638
 H         9.085410       10.039142       16.760195
 H         9.531784        8.775753       15.984286
 H         1.383071       10.015482       12.318551
 H         1.803694        8.752037       13.108884
 H         4.283048       12.101165       10.062164
 H         5.165120       10.830753       10.074297
 H         6.003439       12.372598       11.554634
 H         5.999105       12.376061       13.100651
 H         5.183866       10.823689       14.583786
 H         4.282451       12.079667       14.575639
 H         2.610963        7.163538       14.581996
 H         2.159878        8.426093       15.351301
 H         2.178613       12.399060       13.743385
 H         2.609045       13.653322       14.538788
 H         5.636611        8.728378       10.870998
 H         4.297477        8.693091       10.099282
 H         5.639060        8.715525       15.381907
 H         4.310216        8.702332       14.593268
 H         1.753763       12.104464       15.989766
 H         0.420847       12.110968       16.769630
 H         1.782543       12.119728       11.486112
 H         0.458384       12.083516       12.290694
 H         2.604948       13.675639       10.012153
 H         2.167882       12.406759        9.244006
 H         2.168896        8.420527       10.871134
 H         2.596193        7.139948       10.116416
 H         6.077772        8.495250       13.126367
 H         7.407976        8.509668       12.334189
 H         7.394911        8.479702       16.841457
 H         6.060611        8.490201       17.628693
 H         6.039438       12.412167       16.024117
 H         6.477358       13.687879       16.780289
 H         0.399155        8.745149       16.795570
 H         1.299458       10.002165       16.783009
