381
 generated by VMD
 O         9.280685        1.900848       12.397563
 O        13.047374        4.555981       10.032573
 O        14.275454        5.385448       12.322695
 O        12.948902        4.481762       14.520985
 O        10.327172        1.046125       14.458097
 O        10.312366        5.381197       14.531587
 O        13.162922        1.841545       10.053941
 O        12.900527        1.755718       14.502619
 O         9.073495        4.515617       16.795708
 O         9.101190        4.349046       12.388545
 O        10.476542        5.496662       10.087301
 O        10.738363        0.607864       10.668077
 O        14.322307        0.876166       12.351029
 O        14.243557        0.811038       16.746870
 O        14.276249        5.389116       16.778803
 O         9.061284        1.798657       16.646439
 O         9.090418        9.096950        3.342371
 O        12.970336       11.793720        1.099318
 O        14.272156       12.707594        3.314977
 O        13.020498       11.765885        5.544482
 O        10.383782        8.203957        5.598891
 O        10.386470       12.611487        5.588548
 O        12.976247        9.051217        1.117814
 O        12.996303        9.029143        5.596269
 O         9.092705       11.834138        7.848831
 O         9.085832       11.821297        3.283000
 O        10.394010       12.739671        1.036963
 O        10.389349        8.157768        1.095557
 O        14.278842        8.162310        3.347062
 O        14.274615        8.137267        7.850033
 O        14.275914       12.691944        7.808402
 O         9.071157        9.089919        7.863463
 O         1.327964        9.074393        3.341003
 O         5.179315       11.780464        1.068078
 O         6.497692       12.722518        3.295370
 O         5.208465       11.819852        5.546425
 O         2.618823        8.174610        5.588568
 O         2.624617       12.718151        5.595233
 O         5.198617        9.039848        1.110501
 O         5.201768        9.086755        5.563501
 O         1.324960       11.795459        7.829597
 O         1.335609       11.811955        3.355673
 O         2.599733       12.714478        1.102844
 O         2.608747        8.123875        1.103403
 O         6.509903        8.167204        3.348434
 O         6.471031        8.208126        7.825843
 O         6.475507       12.717388        7.807032
 O         1.313702        9.060370        7.833777
 O         1.327189        1.755853        3.315394
 O         5.210438        4.530234        1.076035
 O         6.520493        5.428759        3.289677
 O         5.199443        4.528451        5.531881
 O         2.620989        0.844230        5.546170
 O         2.629483        5.423513        5.580585
 O         5.227215        1.780533        1.072394
 O         5.170640        1.784699        5.503786
 O         1.367527        4.481913        7.824203
 O         1.327581        4.486904        3.353555
 O         2.594695        5.386228        1.104318
 O         2.635137        0.853802        1.070804
 O         6.516475        0.874450        3.290746
 O         6.330204        0.875866        7.835063
 O         6.418817        5.492980        7.805714
 O         1.346736        1.735704        7.785786
 O         9.070500        1.794397        3.235541
 O        12.981415        4.503494        1.090868
 O        14.291283        5.437828        3.310247
 O        13.016895        4.549000        5.571603
 O        10.463655        0.806164        5.229199
 O        10.427555        5.449990        5.517894
 O        12.974565        1.766557        1.046665
 O        13.088075        1.789435        5.569679
 O         9.073985        4.692524        7.788027
 O         9.104035        4.510911        3.296544
 O        10.378242        5.406538        1.074583
 O        10.400961        0.869045        0.967204
 O        14.298065        0.852569        3.269453
 O        14.316023        0.824636        7.765407
 O        14.323490        5.413091        7.799088
 O         1.341595        1.789123       12.334723
 O         5.216837        4.515877       10.075278
 O         6.608108        5.331462       12.278442
 O         5.255625        4.503518       14.558468
 O         2.607688        0.833000       14.533438
 O         2.646429        5.400665       14.563142
 O         5.022820        1.779978       10.098578
 O         5.197036        1.774480       14.591377
 O         1.313571        4.464631       16.783003
 O         1.340221        4.521702       12.319160
 O         2.631967        5.400842       10.079267
 O         2.485462        0.829800       10.075182
 O         6.374445        0.822546       12.366293
 O         6.510463        0.857780       16.803778
 O         6.507057        5.436938       16.799986
 O         1.305440        1.727186       16.768417
 O         9.030789        9.033003       12.361491
 O        12.991741       11.743711       10.061300
 O        14.233110       12.708064       12.331722
 O        12.929446       11.807221       14.579480
 O        10.353629        8.101250       14.586660
 O        10.312694       12.759099       14.509460
 O        12.981809        9.013874       10.101757
 O        12.932645        9.042706       14.598994
 O         9.060965       11.797197       16.769588
 O         9.057276       11.760731       12.314695
 O        10.406027       12.623896       10.099683
 O        10.357832        8.208091       10.101699
 O        14.242258        8.118968       12.356970
 O        14.268927        8.140059       16.818701
 O        14.241991       12.683311       16.805050
 O         9.093472        9.056337       16.816683
 O         1.304366        9.045186       12.305310
 O         5.166315       11.782007       10.059256
 O         6.449019       12.666181       12.334496
 O         5.163386       11.766882       14.583692
 O         2.616001        8.142765       14.547038
 O         2.588657       12.695052       14.551916
 O         5.204657        9.043678       10.090707
 O         5.203754        9.031322       14.562203
 O         1.306883       11.791286       16.812477
 O         1.286054       11.780618       12.316779
 O         2.580714       12.698820       10.074287
 O         2.609415        8.138200       10.081011
 O         6.471013        8.072610       12.318965
 O         6.501295        8.167894       16.812775
 O         6.479200       12.711947       16.808069
 O         1.320768        9.042185       16.792002
 H         9.215255        2.937654       12.353716
 H         9.714705        1.573079       13.276611
 H        13.480837        4.870798        9.229324
 H        12.147164        4.897355       10.015969
 H        15.187557        5.073913       12.311234
 H        13.868498        5.088023       11.500665
 H        13.392431        4.812772       13.730386
 H        12.050732        4.821735       14.505324
 H        11.265099        1.299200       14.517511
 H         9.878406        1.326889       15.278092
 H         9.884066        5.095918       15.348776
 H        10.321791        6.346799       14.554714
 H        12.283483        1.492722       10.131231
 H        13.086410        2.803731       10.033120
 H        12.949836        2.719563       14.505428
 H        13.399326        1.458532       13.730584
 H         8.172686        4.859262       16.830036
 H         9.522058        4.828040       17.591934
 H         8.192961        4.694678       12.329414
 H         9.516095        4.750443       13.172076
 H         9.993448        5.152091       10.833503
 H        10.413438        6.459074       10.126633
 H        10.575818       14.277055       10.431088
 H         9.755409        1.500671       11.647407
 H        15.234952        1.189833       12.376277
 H        13.953289        1.228859       11.535330
 H        14.228469       14.449334       16.746952
 H        13.774068        1.102983       15.962421
 H        13.838410        5.065439       15.987317
 H        15.178374        5.050125       16.757730
 H         8.152248        1.479024       16.710796
 H         9.031252        2.760273       16.726364
 H         9.546164        8.779100        2.557298
 H         9.098367       10.059872        3.294515
 H        12.979952       10.831014        1.130101
 H        13.428004       12.099915        1.891575
 H        15.180393       12.389022        3.345039
 H        13.840891       12.376977        4.111761
 H        13.456029       12.078593        6.343465
 H        13.035126       10.803755        5.580134
 H         9.906592        8.519715        6.372374
 H         9.916536        8.538750        4.826662
 H        11.293688       12.297802        5.551229
 H         9.956257       12.319932        4.780456
 H        13.445559        8.728289        1.895835
 H        13.452766        8.721347        0.349239
 H        13.421595        8.698230        6.394149
 H        12.080658        8.730096        5.621068
 H         9.531770       12.133647        7.042337
 H         8.194175       12.178067        7.819363
 H         9.522231       12.175867        2.503235
 H         8.183207       12.157101        3.276352
 H         9.959906       12.383862        0.256230
 H        11.293590       12.395891        1.044045
 H        11.308640        8.446016        1.108449
 H        10.402206        7.194839        1.094158
 H        13.822439        8.448798        4.146129
 H        14.274561        7.198563        3.356481
 H        14.284165        7.173440        7.852111
 H        13.811913        8.415360        8.646813
 H        13.816619       12.396203        8.599256
 H        14.262916       13.655723        7.815246
 H         8.155334        8.790832        7.844285
 H         9.048564       10.053240        7.854493
 H         0.422043        8.746895        3.324268
 H         1.761019        8.732347        2.552274
 H         4.265014       12.083036        1.083657
 H         5.157457       10.817634        1.085563
 H         6.036132       12.402277        4.077834
 H         6.019838       12.380660        2.533926
 H         4.305098       12.153028        5.578170
 H         5.645688       12.145120        6.341094
 H         2.145815        8.496358        6.362962
 H         2.145362        8.498227        4.815261
 H         2.167779       12.423864        6.389738
 H         2.612070       13.681930        5.600965
 H         5.637695        8.726027        1.909363
 H         4.299482        8.695740        1.129430
 H         4.286062        8.788539        5.572504
 H         5.179540       10.050290        5.554595
 H         1.304483       10.832302        7.822715
 H         0.408422       12.092129        7.819998
 H         1.349505       10.848995        3.366138
 H         1.791443       12.106897        4.151668
 H         2.150882       12.424424        1.904931
 H         2.604518       13.677305        1.117209
 H         2.158791        8.426904        0.308499
 H         2.585511        7.160965        1.084982
 H         6.071251        8.493079        4.142312
 H         7.410195        8.508913        3.366825
 H         6.443222        7.243769        7.797446
 H         6.021194        8.513189        7.030663
 H         6.019073       12.407989        8.594796
 H         6.441994       13.679379        7.835581
 H         0.410629        8.725575        7.859558
 H         1.754907        8.728096        8.622188
 H         0.422532        1.423174        3.280929
 H         1.769987        1.436489        2.523232
 H         4.298952        4.837584        1.114375
 H         5.653614        4.863687        1.865737
 H         7.434277        5.122386        3.303004
 H         6.548773        6.390959        3.317012
 H         5.674924        4.821769        4.748409
 H         5.210770        3.565102        5.515078
 H         2.173701        1.167760        4.757129
 H         3.524733        1.180696        5.509180
 H         2.641905        6.385942        5.586880
 H         3.549078        5.133200        5.559320
 H         5.681180        1.478088        1.869419
 H         5.232817        2.743056        1.099082
 H         5.610363        1.468000        6.299585
 H         5.674475        1.450238        4.754130
 H         1.823490        4.792328        7.033922
 H         1.373338        3.519409        7.789066
 H         1.786501        4.795767        4.142407
 H         1.340686        3.523792        3.377313
 H         2.129766        5.044168        0.334964
 H         2.132365        5.056133        1.883200
 H         3.535950        1.193176        1.053416
 H         2.195925        1.174314        0.277246
 H         6.537834       14.514778        3.296540
 H         7.434540        1.175682        3.288692
 H         5.866879        1.199171        8.616115
 H         7.196323        1.288965        7.890153
 H         7.336123        5.203339        7.793619
 H         6.011944        5.132360        7.010627
 H         0.441283        1.407457        7.741231
 H         1.796538        1.413926        6.996074
 H         9.525640        1.485459        2.450247
 H         9.575384        1.434384        3.986563
 H        13.434332        4.799671        0.295321
 H        12.989996        3.540371        1.067537
 H        13.853827        5.095943        2.523780
 H        15.189819        5.091023        3.306657
 H        13.439908        4.876769        4.771958
 H        12.106334        4.864355        5.551131
 H        11.345316        1.125929        5.407409
 H        10.452293       14.471964        5.416506
 H         9.959151        5.150750        6.304204
 H        10.400539        6.411257        5.546418
 H        12.065747        1.446782        1.017041
 H        13.408502        1.425520        0.259137
 H        13.517135        1.504868        4.758529
 H        13.060045        2.750374        5.552102
 H         8.943233        3.742685        7.870667
 H         9.554061        4.944638        8.581429
 H         9.565619        4.804543        4.089194
 H         9.101400        3.544903        3.313903
 H         9.945457        5.079885        1.874366
 H        11.283536        5.080193        1.099877
 H         9.938715        1.150903        0.176413
 H        10.382243       14.507941        0.977834
 H        13.816750        1.147143        2.490079
 H        14.261654       14.492682        3.273993
 H        13.890143        1.201120        8.538835
 H        13.852411        1.175801        6.992549
 H        15.224679        5.072829        7.780633
 H        13.881992        5.093713        7.002496
 H         1.748622        1.475114       11.517608
 H         1.357137        2.752432       12.307303
 H         5.188990        3.553478       10.043057
 H         5.659680        4.808301        9.270155
 H         6.562616        6.294809       12.273993
 H         6.127774        5.036936       11.492558
 H         5.716984        4.853923       15.329291
 H         5.734229        4.802057       13.779984
 H         2.186435        1.186281       13.740823
 H         3.507790        1.171090       14.541076
 H         2.656428        6.364175       14.563365
 H         3.564663        5.114437       14.556895
 H         4.120261        1.441662       10.114507
 H         5.466036        1.422856       10.868107
 H         5.647987        1.467555       15.386341
 H         5.217441        2.738100       14.609608
 H         1.789726        4.770545       16.004385
 H         1.324041        3.501756       16.756109
 H         1.816245        4.845320       13.091277
 H         1.810834        4.848643       11.543311
 H         3.541801        5.081558       10.059656
 H         2.206431        5.066032        9.282187
 H         2.502354       14.468810       10.052671
 H         2.072824        1.124576        9.254049
 H         5.969339        1.172656       13.172887
 H         7.234314        1.215987       12.303802
 H         6.062498        1.166426       17.601908
 H         6.486626       14.496748       16.826674
 H         6.492491        6.400593       16.824881
 H         6.036911        5.134532       17.586838
 H         1.738351        1.391893       15.976065
 H         0.402677        1.394734       16.751961
 H         9.473392        8.692090       13.145068
 H         8.132324        8.684004       12.367741
 H        13.432137       12.056525       10.856974
 H        13.023681       10.780698       10.085980
 H        13.774465       12.423201       13.128443
 H        14.255643       13.669264       12.349389
 H        12.031361       12.145139       14.596071
 H        13.367656       12.123021       15.378455
 H         9.923962        8.441753       15.380283
 H        11.257404        8.434943       14.603444
 H        10.285552       13.711740       14.460819
 H         9.870078       12.421310       13.720090
 H        12.063684        8.724667       10.123806
 H        13.401167        8.680051       10.901999
 H        12.939859       10.004520       14.606523
 H        13.402861        8.754744       15.389417
 H         8.152843       12.120363       16.776396
 H         9.470958       12.142473       15.972599
 H         9.046515       10.796497       12.334307
 H         9.524934       12.011856       11.511294
 H         9.948647       12.380195        9.283720
 H        11.299817       12.265900       10.044008
 H         9.873829        8.524451       10.870485
 H         9.886614        8.525468        9.321311
 H        14.242368        7.156051       12.377856
 H        13.789793        8.419242       13.151363
 H        15.185133        8.438118       16.803797
 H        14.291311        7.177852       16.807037
 H        13.817101       12.360199       17.608765
 H        15.150167       12.361604       16.822237
 H         9.098223       10.018892       16.822025
 H         9.555935        8.766371       17.612032
 H         0.404450        8.704964       12.299848
 H         1.736772        8.715222       11.509246
 H         4.262163       12.113214       10.078606
 H         5.597777       12.109579       10.853042
 H         6.462284       13.626442       12.338123
 H         7.364696       12.372107       12.316288
 H         5.598296       12.087833       13.787285
 H         4.257658       12.094243       14.554739
 H         3.521295        8.471700       14.528844
 H         2.182281        8.464689       13.749804
 H         2.125702       12.389273       13.764440
 H         2.585142       13.657468       14.519907
 H         5.651680        8.759263        9.284309
 H         5.199323       10.006783       10.071492
 H         5.659759        8.739110       15.358988
 H         5.204034        9.994342       14.585876
 H         1.770514       12.125840       16.038034
 H         1.775223       12.126323       17.585203
 H         0.370256       12.075239       12.319519
 H         1.269474       10.817247       12.311033
 H         2.106308       12.360909       10.840341
 H         2.124017       12.362667        9.294218
 H         3.523425        8.442619       10.079077
 H         2.640993        7.175222       10.074860
 H         6.016052        8.418693       11.541907
 H         5.999551        8.407874       13.088861
 H         6.062000        8.489264       17.608534
 H         7.406877        8.494500       16.841434
 H         6.015663       12.372622       17.583477
 H         6.002767       12.377757       16.041016
 H         1.781472        8.754758       15.996653
 H         1.330535       10.005070       16.784918
