381
 generated by VMD
 O         9.116419        1.763701       12.284645
 O        12.997319        4.498565       10.105367
 O        14.175618        5.515202       12.336270
 O        12.927999        4.535939       14.584770
 O        10.362288        0.846591       14.558871
 O        10.341300        5.409420       14.603861
 O        12.919518        1.765425       10.001493
 O        12.931875        1.768819       14.542512
 O         9.082543        4.473976       16.844627
 O         9.107687        4.516829       12.325363
 O        10.402529        5.404252       10.085464
 O        10.329295        0.842756       10.008030
 O        14.133075        0.814463       12.273632
 O        14.292098        0.918376       16.763321
 O        14.268541        5.419283       16.843573
 O         9.128978        1.756888       16.820240
 O         9.102487        9.096227        3.341199
 O        12.981121       11.836224        1.076476
 O        14.280130       12.695814        3.328975
 O        12.960401       11.764302        5.544637
 O        10.373779        8.172391        5.582126
 O        10.384460       12.718107        5.586347
 O        12.982284        9.099517        1.103851
 O        12.978844        9.022512        5.575415
 O         9.107048       11.788365        7.813351
 O         9.083600       11.824870        3.351470
 O        10.383746       12.703624        1.108632
 O        10.395813        8.175312        1.100441
 O        14.287620        8.137980        3.326707
 O        14.278060        8.136656        7.815988
 O        14.246428       12.690649        7.777757
 O         9.087013        9.051359        7.832994
 O         1.331367        9.064174        3.334282
 O         5.192687       11.820308        1.075944
 O         6.505638       12.746089        3.299707
 O         5.234560       11.788391        5.533647
 O         2.624128        8.134745        5.573728
 O         2.634758       12.697483        5.578850
 O         5.217379        9.066813        1.116011
 O         5.222553        9.045738        5.574481
 O         1.310740       11.776872        7.794724
 O         1.336824       11.788359        3.351454
 O         2.592807       12.731474        1.089214
 O         2.627883        8.143369        1.082494
 O         6.523726        8.159828        3.338902
 O         6.497765        8.141388        7.813961
 O         6.515363       12.705164        7.772223
 O         1.331422        9.052379        7.818808
 O         1.316503        1.782868        3.300126
 O         5.184072        4.487125        1.111995
 O         6.530093        5.411952        3.307915
 O         5.223084        4.531734        5.556954
 O         2.622567        0.820619        5.494926
 O         2.615969        5.394308        5.527616
 O         5.171746        1.768230        1.045871
 O         5.187542        1.788391        5.535675
 O         1.338034        4.451240        7.748915
 O         1.331945        4.537180        3.267762
 O         2.621952        5.382698        1.029054
 O         2.584889        0.879510        1.077202
 O         6.462379        0.885570        3.293982
 O         6.487163        0.846474        7.752162
 O         6.540280        5.408873        7.800118
 O         1.301623        1.738833        7.712660
 O         9.049465        1.765201        3.302490
 O        13.019560        4.476188        1.098741
 O        14.270870        5.401740        3.351280
 O        12.968186        4.530452        5.587217
 O        10.356466        0.854719        5.534539
 O        10.383520        5.439711        5.594151
 O        12.989351        1.753366        1.100031
 O        12.940914        1.778349        5.524014
 O         9.117213        4.504328        7.833379
 O         9.116446        4.517361        3.343283
 O        10.428284        5.423591        1.100089
 O        10.416645        0.838325        1.115942
 O        14.278050        0.830917        3.338053
 O        14.236573        0.838332        7.766404
 O        14.288377        5.392741        7.838888
 O         9.058149        1.778131        7.765342
 O         5.261045        4.459209       10.031026
 O         6.513352        5.412126       12.261420
 O         5.271719        4.533929       14.573577
 O         3.030880        0.590676       15.416558
 O         2.414253        5.618082       14.729848
 O         5.240958        1.738281       10.003062
 O         5.399393        1.746097       14.539639
 O         1.445440        4.569477       16.727173
 O         1.255603        5.132353       12.517151
 O         2.663201        5.398047       10.005700
 O         2.668226        0.793036        9.911332
 O         6.534080        0.818722       12.238451
 O         6.540908        0.824793       16.815742
 O         6.474239        5.402303       16.823627
 O         1.312308        1.956345       16.816298
 O         9.052509        9.039545       12.325233
 O        12.926308       11.805446       10.003651
 O        14.194390       12.659694       12.285919
 O        12.956716       11.819750       14.570273
 O        10.339057        8.141637       14.564133
 O        10.365150       12.702829       14.587088
 O        12.953860        9.093178       10.027560
 O        12.919878        9.064367       14.580204
 O         9.070585       11.779753       16.838846
 O         9.086638       11.792922       12.332571
 O        10.347331       12.716858       10.063801
 O        10.377766        8.152555       10.081853
 O        14.179375        8.239916       12.288549
 O        14.257695        8.168168       16.823042
 O        14.256557       12.776321       16.789152
 O         9.059411        9.030444       16.811895
 O         1.288239        9.091166       12.334411
 O         5.248763       11.780509       10.025809
 O         6.489972       12.678198       12.298756
 O         5.193888       11.744124       14.536885
 O         2.623590        8.071744       14.754102
 O         2.615498       12.565638       14.560498
 O         5.209640        9.026796       10.063754
 O         5.116990        9.033000       14.572402
 O         1.261983       11.765496       16.839251
 O         1.264700       11.774548       12.267824
 O         2.621651       12.649495       10.029732
 O         2.595322        8.145103       10.060230
 O         6.464281        8.148724       12.352861
 O         6.458097        8.136066       16.817253
 O         6.484888       12.686121       16.775511
 O         1.290419        9.080257       16.805374
 H         9.559663        1.454901       13.081844
 H         9.119329        2.725048       12.322526
 H        12.080781        4.792907       10.084701
 H        12.974810        3.534178       10.081127
 H        14.104064        6.474765       12.271845
 H        13.768760        5.141696       11.542521
 H        13.410780        4.850938       15.353251
 H        13.371177        4.890538       13.808614
 H        10.380988       14.485965       14.564026
 H        11.279241        1.143188       14.549360
 H        11.247068        5.082640       14.618439
 H         9.911275        5.069262       15.395962
 H        12.019617        1.427390        9.961486
 H        13.380855        1.432560        9.224496
 H        12.944594        2.729048       14.517369
 H        13.379986        1.465630       13.743902
 H         9.067935        3.509125       16.836157
 H         8.168211        4.769552       16.846724
 H         9.519277        4.842854       13.132423
 H         8.202326        4.842084       12.321440
 H         9.948320        5.113918       10.883565
 H        10.385665        6.366879       10.094241
 H         9.851967        1.176122        9.241365
 H         9.892359        1.192867       10.791391
 H        13.721719        1.152075       11.467466
 H        15.054496        1.080085       12.208417
 H        13.813549        1.220482       17.541611
 H        13.803995        1.230149       15.993517
 H        15.168145        5.097792       16.857841
 H        13.836842        5.065948       17.634005
 H         9.605370        1.419775       17.586245
 H         9.582438        1.425816       16.036585
 H         9.107323       10.059859        3.323046
 H         9.558015        8.797067        2.547589
 H        12.073196       12.158336        1.069748
 H        13.406005       12.183586        0.284489
 H        14.270854       13.659254        3.325206
 H        13.826150       12.414170        2.527721
 H        12.978492       10.801794        5.530639
 H        13.422863       12.065807        4.755489
 H        11.285238        8.483590        5.565239
 H         9.948185        8.512339        4.787723
 H        11.284543       12.375745        5.587440
 H         9.959204       12.383711        6.384114
 H        12.065534        8.803980        1.103688
 H        12.964037       10.063303        1.096382
 H        13.453035        8.691605        4.806105
 H        13.449014        8.698966        6.351808
 H         9.111948       10.825861        7.841300
 H         9.538502       12.093640        8.619093
 H         8.182781       12.166399        3.356601
 H         9.515721       12.149100        4.149465
 H         9.900914       12.370626        0.344157
 H         9.920429       12.382561        1.889776
 H        10.402042        7.212627        1.089645
 H         9.925909        8.454021        0.307088
 H        13.846464        8.489038        2.546586
 H        15.190215        8.474092        3.310396
 H        14.305387        7.173790        7.833524
 H        15.192315        8.439713        7.817477
 H        15.153677       12.368364        7.774033
 H        13.823681       12.344596        6.985031
 H         8.181441        8.724845        7.809033
 H         9.520584        8.733162        7.034014
 H         1.794812        8.770857        2.545138
 H         1.347174       10.028614        3.327507
 H         5.644546       12.108488        0.274541
 H         5.215237       10.858978        1.076193
 H         6.047171       12.445124        2.508036
 H         6.474856       13.708792        3.287369
 H         5.244761       10.825991        5.518507
 H         5.681286       12.092083        4.736712
 H         2.605492        7.171983        5.547328
 H         2.165934        8.441651        4.784860
 H         2.657495       13.660907        5.552734
 H         3.549288       12.397894        5.565404
 H         5.660496        8.744226        1.909298
 H         4.315435        8.733956        1.141276
 H         5.648297        8.721395        6.375997
 H         4.317498        8.717880        5.589338
 H         1.789986       12.120307        7.033280
 H         1.778589       12.094549        8.576002
 H         1.771057       12.118374        4.146250
 H         0.431551       12.117000        3.367455
 H         3.500838       12.411809        1.094393
 H         2.179283       12.404855        1.894782
 H         2.611866        7.182538        1.051396
 H         2.153047        8.456968        0.307373
 H         7.423869        8.502781        3.357504
 H         6.088872        8.472772        4.140074
 H         6.047422        8.429906        8.614710
 H         6.502639        7.177764        7.831540
 H         7.421084       12.379226        7.760234
 H         6.086906       12.372169        6.976640
 H         1.790534        8.748919        7.028717
 H         1.335548       10.016904        7.788458
 H         1.331936        2.744144        3.274198
 H         1.764572        1.474992        2.503612
 H         5.198328        3.521817        1.110219
 H         5.662007        4.779222        1.896583
 H         7.447765        5.117686        3.317713
 H         6.550351        6.374752        3.311692
 H         5.698705        4.852118        4.783878
 H         5.699373        4.855028        6.329109
 H         2.189021        1.164366        4.706662
 H         3.515809        1.179999        5.500328
 H         2.179212        5.043550        6.312542
 H         3.526164        5.080751        5.554815
 H         4.268843        1.433160        1.017588
 H         5.624446        1.425194        0.266598
 H         5.211583        2.750105        5.571399
 H         5.644287        1.469965        6.322570
 H         1.332715        3.485179        7.760641
 H         1.802453        4.733930        8.539234
 H         0.421386        4.849338        3.317138
 H         1.773253        4.846237        4.067254
 H         2.165335        5.078922        1.824830
 H         3.530031        5.058613        1.090335
 H         2.120321        1.209437        0.302698
 H         2.569989       14.519947        1.032829
 H         5.993717        1.214452        4.069245
 H         5.984419        1.201497        2.519842
 H         6.485695       14.485806        7.773982
 H         6.042769        1.139584        8.556459
 H         7.448389        5.086712        7.825678
 H         6.105062        5.058170        8.584473
 H         1.723036        1.392948        6.919632
 H         0.398385        1.405617        7.728279
 H         9.051417        2.727390        3.319706
 H         8.127083        1.486629        3.295935
 H        13.015122        3.511548        1.126303
 H        13.454211        4.777230        1.904680
 H        14.259331        6.364942        3.357500
 H        13.812016        5.113428        4.148929
 H        13.405333        4.835740        6.389167
 H        12.066922        4.869434        5.614014
 H         9.889928        1.136554        4.740988
 H        10.361925       14.493728        5.533133
 H        10.358882        6.402561        5.610361
 H         9.932252        5.133408        6.388359
 H        12.085735        1.419424        1.128453
 H        13.433413        1.411225        1.883647
 H        12.924678        2.740183        5.551802
 H        12.024595        1.482690        5.523638
 H         9.116892        3.540360        7.828003
 H         9.575958        4.784567        8.632202
 H         9.576302        4.843661        4.124443
 H         9.600487        4.841822        2.577330
 H         9.974675        5.078024        0.324189
 H        11.327142        5.081693        1.073382
 H         9.929318        1.145440        1.888040
 H        10.390883       14.477611        1.134474
 H        15.177553        1.174235        3.353695
 H        13.829831        1.177761        4.117578
 H        13.776847        1.134647        6.975473
 H        14.230060       14.478209        7.752574
 H        15.185983        5.043584        7.830965
 H        13.866961        5.060140        8.638056
 H         8.154041        1.445788        7.734368
 H         9.502375        1.447024        6.977531
 H         5.232048        3.493939       10.023670
 H         4.348544        4.759228       10.018402
 H         6.060153        5.056444       11.487423
 H         6.057255        5.075814       13.035544
 H         4.370821        4.822504       14.621685
 H         5.701821        4.846289       15.382682
 H         2.855596       14.358161       14.986465
 H         3.793913        0.980906       14.994316
 H         2.511263        6.643100       14.789651
 H         1.999250        5.173919       15.572674
 H         4.333265        1.413402       10.008281
 H         5.663270        1.399486       10.799813
 H         5.776180        1.433610       13.710105
 H         5.355445        2.700094       14.489657
 H         1.410340        3.588264       16.723141
 H         1.880889        4.837568       17.555477
 H         1.923409        5.393001       13.904871
 H         0.283374        5.201503       12.442464
 H         2.631752        6.361942       10.024611
 H         2.200946        5.108001       10.780965
 H         2.169994        1.094387       10.677030
 H         2.175977        1.126149        9.151012
 H         6.542545       14.457969       12.256374
 H         7.450747        1.111199       12.241583
 H         7.449314        1.141758       16.822571
 H         6.149606        1.157628       15.999085
 H         6.469042        6.365723       16.850529
 H         6.020755        5.097423       17.617872
 H         1.879493        1.470380       16.189779
 H         0.422487        1.596462       16.743719
 H         9.522928        8.706149       13.096859
 H         9.528708        8.721205       11.551198
 H        12.025882       12.147409        9.996529
 H        13.369132       12.147341        9.219084
 H        13.747684       12.369603       11.483809
 H        14.175341       13.622590       12.266900
 H        12.959003       10.858164       14.566586
 H        13.391859       12.098921       13.755483
 H        11.252029        8.447796       14.577792
 H        10.368066        7.178642       14.581971
 H         9.936712       12.375182       15.384005
 H        11.273490       12.382371       14.604178
 H        13.419374        8.778453        9.245449
 H        12.948928       10.057636        9.984471
 H        13.380428        8.763509       13.790334
 H        13.407552        8.733591       15.340015
 H         8.156203       12.082655       16.811165
 H         9.043205       10.817914       16.829342
 H         9.096142       10.830965       12.351108
 H         9.537795       12.090234       13.129752
 H         9.907422       12.420457       10.866697
 H        10.321441       13.680511       10.067493
 H        11.277448        8.494080       10.047511
 H         9.934365        8.471046        9.288388
 H        13.758051        8.573437       11.485631
 H        15.088539        8.550717       12.274460
 H        13.799637        8.487123       17.610350
 H        14.237027        7.207328       16.863310
 H        14.267387       13.739298       16.754400
 H        13.805378       12.472450       15.994254
 H         8.154731        8.704325       16.792002
 H         9.488780        8.712384       16.010139
 H         1.736378        8.821736       13.131064
 H         1.293833       10.060518       12.324792
 H         5.692258       12.081803        9.226009
 H         5.252556       10.819388       10.004348
 H         7.395001       12.349666       12.293419
 H         6.073765       12.358469       11.490928
 H         4.280794       12.058120       14.519676
 H         5.622332       12.083751       13.743617
 H         3.527281        8.428563       14.706094
 H         2.162919        8.493616       15.501582
 H         2.111768       12.341320       13.774136
 H         2.112973       12.263643       15.320733
 H         4.299172        8.717419       10.083198
 H         5.629194        8.715535       10.871931
 H         5.588202        8.722699       13.789700
 H         5.149302        9.999687       14.540639
 H         1.717596       12.123341       17.609282
 H         0.375605       12.144132       16.836767
 H         0.367508       12.124653       12.245513
 H         1.720358       12.119980       11.492588
 H         3.539239       12.361548       10.036427
 H         2.640765       13.612485       10.002148
 H         2.138533        8.482391        9.279945
 H         2.126570        8.487267       10.825249
 H         6.503469        7.187524       12.311263
 H         7.377598        8.457965       12.345091
 H         6.010602        8.481213       17.598692
 H         5.985147        8.473088       16.050905
 H         6.483441       13.650031       16.765785
 H         6.025310       12.397071       15.980331
 H         0.374592        8.775726       16.815636
 H         1.260528       10.048325       16.828110
