381
 generated by VMD
 O         9.094109        1.776553       12.321287
 O        13.001720        4.443469       10.031133
 O        14.190030        5.351948       12.296063
 O        12.927377        4.470525       14.587298
 O        10.356411        0.875145       14.583797
 O        10.408710        5.437111       14.595578
 O        12.951713        1.707128       10.092893
 O        12.932717        1.728494       14.570610
 O         9.057736        4.706064       16.777405
 O         9.237856        4.528160       12.233232
 O        10.466144        5.415314        9.989020
 O        10.348893        0.844203       10.066875
 O        14.198937        0.786443       12.340289
 O        14.164702        0.769755       16.809410
 O        14.195286        5.346586       16.835291
 O         9.037030        1.832809       16.837494
 O         9.068705        9.107740        3.318566
 O        12.949094       11.770393        1.144507
 O        14.284988       12.718833        3.344593
 O        12.981238       11.787718        5.573720
 O        10.386423        8.163575        5.538530
 O        10.394305       12.707257        5.613615
 O        12.951558        9.038395        1.090927
 O        12.991558        9.050721        5.544061
 O         9.095747       11.813478        7.844589
 O         9.067396       11.838542        3.384537
 O        10.355424       12.702086        1.134924
 O        10.373344        8.175047        1.109537
 O        14.286261        8.139054        3.307915
 O        14.260870        8.133345        7.775105
 O        14.255554       12.715298        7.825161
 O         9.111043        9.079736        7.779275
 O         1.349859        9.039813        3.293461
 O         5.256984       11.741342        1.070661
 O         6.478737       12.729063        3.346634
 O         5.218170       11.818124        5.606750
 O         2.615045        8.159054        5.540442
 O         2.611953       12.704994        5.592615
 O         5.284057        8.943154        0.992878
 O         5.190402        9.085994        5.548999
 O         1.301753       11.806801        7.827856
 O         1.344115       11.788537        3.349910
 O         2.645138       12.663484        1.116880
 O         2.684447        8.129607        1.078640
 O         6.483655        8.163780        3.325486
 O         6.520293        8.165226        7.764528
 O         6.519371       12.746266        7.847087
 O         1.313262        9.074986        7.757141
 O         1.320037        1.748142        3.357795
 O         5.128843        4.539118        1.102500
 O         6.507042        5.417742        3.334550
 O         5.200003        4.498819        5.566538
 O         2.602672        0.838168        5.594653
 O         2.620435        5.417888        5.570078
 O         5.143078        1.761723        1.115689
 O         5.175341        1.761741        5.588748
 O         1.346807        4.500527        7.818514
 O         1.285741        4.475698        3.373696
 O         2.597176        5.370792        1.162061
 O         2.600209        0.797075        1.131672
 O         6.477818        0.862549        3.337363
 O         6.487386        0.888631        7.836165
 O         6.499523        5.429094        7.793730
 O         1.304612        1.755393        7.813415
 O         9.084542        1.755045        3.361190
 O        12.901249        4.476692        1.156196
 O        14.235036        5.401616        3.346783
 O        12.973229        4.522138        5.606175
 O        10.382470        0.847667        5.600000
 O        10.388049        5.429695        5.528696
 O        12.946066        1.735067        1.134923
 O        12.977164        1.776344        5.613163
 O         9.090445        4.518393        7.780313
 O         9.078459        4.493229        3.321303
 O        10.287005        5.453218        1.071435
 O        10.377876        0.842889        1.116818
 O        14.264475        0.865942        3.366556
 O        14.247985        0.849724        7.848731
 O        14.293533        5.395069        7.829214
 O         9.073847        1.770569        7.829523
 O         1.232704        1.674846       12.248125
 O         5.239694        4.521398       10.048648
 O         6.683405        5.438077       12.151589
 O         5.802059        4.543005       14.473725
 O         2.466782        0.765038       14.539062
 O         5.203204        1.778357       10.078649
 O         5.095017        1.696801       14.542016
 O         1.219736        4.355501       16.974445
 O         1.239263        4.432779       12.224474
 O         2.656423        5.424381       10.061292
 O         2.614261        0.824146       10.025119
 O         6.493233        0.865928       12.333597
 O         6.464605        0.905827       16.816496
 O         6.748186        5.581355       16.585615
 O         1.242769        1.599268       16.866804
 O         9.170548        9.099716       12.262236
 O        12.956153       11.786709       10.054077
 O        14.224471       12.660779       12.324894
 O        12.936299       11.765796       14.574863
 O        10.356479        8.159725       14.537688
 O        10.351852       12.727000       14.586065
 O        13.006901        9.052088       10.026463
 O        12.979026        9.023261       14.541404
 O         9.073205       11.792326       16.837963
 O         9.087145       11.834329       12.324798
 O        10.374475       12.718399       10.076627
 O        10.431594        8.168019       10.013486
 O        14.222425        8.095262       12.264301
 O        14.227258        8.093719       16.817814
 O        14.229689       12.646103       16.825115
 O         9.071332        9.074100       16.831120
 O         1.259739        9.091602       12.181484
 O         5.202228       11.835650       10.073128
 O         6.490305       12.736127       12.321846
 O         5.180135       11.861115       14.566138
 O         2.546962        9.164800       14.636364
 O         2.562709       12.639751       14.588008
 O         5.236143        9.098746       10.012426
 O         5.366892        9.135284       14.483513
 O         1.295179       11.801202       16.873301
 O         1.298411       11.798203       12.278280
 O         2.611862       12.699605       10.074161
 O         2.635996        8.163256        9.985667
 O         6.594585        8.186890       12.229328
 O         6.637214        8.020160       16.826756
 O         6.506009       12.739594       16.782394
 O         1.278421        9.081834       16.937571
 H         9.551044        1.478603       13.115159
 H         9.157911        2.735914       12.310300
 H        13.419446        4.747220       10.846514
 H        12.998229        3.480686       10.067575
 H        13.783794        5.032184       13.107311
 H        15.101709        5.040205       12.303070
 H        13.405507        4.757471       15.374696
 H        12.946837        3.507169       14.591751
 H         9.927605        1.220062       15.370092
 H        11.271685        1.182992       14.602421
 H        10.442280        6.400224       14.561275
 H        11.321654        5.115092       14.596329
 H        12.040807        1.396605       10.102991
 H        13.372195        1.367839       10.891753
 H        13.393508        1.382198       15.343199
 H        13.400044        1.393906       13.796106
 H         9.598208        4.965116       16.009863
 H         9.527349        4.981339       17.584568
 H         9.725423        4.845796       11.462714
 H         9.676260        4.870452       13.016173
 H        11.362797        5.060095        9.958444
 H        10.004800        5.089428        9.209371
 H         9.883418        1.181887        9.293901
 H         9.886747        1.179833       10.841474
 H        14.224176       14.425239       12.340248
 H        15.115335        1.086045       12.305226
 H        13.735582        1.083988       17.610773
 H        14.159936       14.408722       16.842194
 H        15.093908        5.000369       16.873447
 H        13.754418        5.036881       17.631805
 H         8.122322        1.525725       16.828346
 H         9.007799        2.787117       16.825434
 H         8.155824        8.802225        3.324210
 H         9.041996       10.070988        3.341323
 H        13.397150       12.115290        1.924326
 H        12.047961       12.106814        1.165051
 H        15.199911       12.418352        3.343158
 H        14.306510       13.681399        3.355843
 H        13.441241       12.097011        4.786374
 H        12.998434       10.825010        5.545492
 H         9.914097        8.504119        4.772457
 H         9.927563        8.498867        6.316841
 H        11.297089       12.370999        5.616877
 H         9.966784       12.375624        6.411072
 H        12.976515       10.001099        1.077991
 H        13.404738        8.729857        0.296545
 H        13.421297        8.713051        6.338718
 H        12.084496        8.729865        5.561283
 H         8.192794       12.149348        7.862360
 H         9.526426       12.141358        8.642217
 H         8.165774       12.176534        3.404019
 H         9.508738       12.152375        4.181890
 H        10.354411       13.664767        1.140849
 H         9.898709       12.420593        1.935331
 H         9.941987        8.526230        1.897097
 H        11.287995        8.484879        1.125017
 H        13.825399        8.476358        4.083543
 H        13.807320        8.464171        2.538099
 H        13.825641        8.445277        8.576267
 H        14.261266        7.171008        7.817989
 H        13.830544       12.380060        7.029021
 H        15.162029       12.387919        7.812412
 H         9.572304        8.769692        8.565784
 H         9.113982       10.042335        7.821764
 H         0.445511        8.711330        3.262198
 H         1.798031        8.712332        2.505458
 H         5.279210       10.782704        1.022407
 H         5.696631       12.069377        0.279228
 H         6.453835       13.691154        3.307117
 H         6.046699       12.401554        2.551707
 H         5.678262       12.154291        4.831155
 H         5.686259       12.151954        6.379379
 H         2.611348        7.195867        5.533168
 H         2.165597        8.444546        4.736770
 H         3.520115       12.387300        5.581152
 H         2.186439       12.367706        4.796318
 H         5.680591        8.663847        1.826334
 H         4.362149        8.652355        1.016896
 H         4.274383        8.786509        5.554338
 H         5.172188       10.049014        5.571827
 H         1.764551       12.112700        7.040944
 H         1.313119       10.843913        7.791546
 H         1.344793       10.826115        3.319368
 H         1.804398       12.083558        2.555918
 H         2.190977       12.351868        0.322983
 H         3.543895       12.326220        1.074235
 H         2.635309        7.169081        1.071128
 H         2.188033        8.436668        0.306049
 H         6.016204        8.476435        4.108920
 H         6.487997        7.202414        3.368998
 H         7.424720        8.494496        7.741039
 H         6.075367        8.503113        6.980269
 H         6.047829       12.446844        8.632553
 H         6.498640       13.708890        7.863557
 H         0.413048        8.734357        7.748243
 H         1.744735        8.741743        6.962900
 H         1.789023        1.417296        4.131709
 H         1.779978        1.405287        2.583403
 H         4.205893        4.845170        1.120035
 H         5.490745        4.846484        0.282771
 H         7.406435        5.072446        3.312918
 H         6.060633        5.101593        2.545391
 H         5.664029        4.787719        4.775012
 H         5.202783        3.535268        5.556808
 H         2.136614        1.140953        6.382536
 H         2.589984       14.477261        5.617424
 H         2.170076        5.072291        4.791930
 H         3.523865        5.086447        5.541777
 H         5.094550        2.720116        1.114626
 H         4.232751        1.437885        1.116466
 H         4.272003        1.425524        5.572541
 H         5.612549        1.426713        4.799859
 H         1.348514        3.537983        7.796982
 H         1.800517        4.798981        7.023582
 H         1.269872        3.512211        3.363791
 H         0.370441        4.774704        3.366113
 H         2.123995        5.063745        1.944453
 H         2.119224        5.013227        0.403191
 H         2.118748        1.065787        0.338653
 H         2.614381       14.435797        1.123067
 H         7.384492        1.185515        3.321481
 H         6.038522        1.204831        2.552078
 H         6.004036        1.201911        7.064627
 H         6.020433        1.215949        8.613097
 H         6.488263        6.392210        7.765692
 H         6.039242        5.121888        7.005715
 H         1.746481        1.419467        8.601344
 H         0.396220        1.437339        7.847708
 H         9.544795        1.421067        4.139535
 H         9.561311        1.422615        2.593739
 H        13.345576        4.823358        1.938971
 H        12.007249        4.824092        1.162812
 H        14.247332        6.365125        3.351914
 H        13.789703        5.122224        4.154295
 H        12.982536        3.559159        5.621795
 H        13.441136        4.812895        6.397615
 H        10.381619       14.486960        5.628870
 H         9.920552        1.148594        6.389846
 H        10.407329        6.393117        5.530827
 H        11.304353        5.133200        5.559402
 H        13.414028        1.443416        1.925596
 H        12.950715        2.697674        1.153820
 H        12.074193        1.443757        5.627244
 H        13.405975        1.440906        6.408868
 H         9.518180        4.847239        6.983160
 H         8.187299        4.853250        7.768832
 H         9.547820        4.807539        4.103419
 H         9.099175        3.530070        3.355547
 H         9.854213        5.130894        1.871579
 H        10.316121        6.416177        1.130516
 H        11.287278        1.165453        1.101606
 H         9.941758        1.192717        0.336352
 H        15.171132        1.191776        3.381277
 H        13.836267        1.193137        4.164752
 H        14.244094       14.488481        7.854589
 H        13.792279        1.132108        8.649623
 H        13.868008        5.047323        8.621071
 H        15.203534        5.078427        7.842485
 H         9.062133        2.733120        7.808462
 H         8.153846        1.483281        7.824912
 H         1.244778        2.637048       12.229897
 H         1.717391        1.384931       11.468883
 H         4.333480        4.853395       10.057102
 H         5.646051        4.846227        9.237817
 H         6.186331        5.099106       11.395405
 H         7.588789        5.112344       12.088103
 H         6.103085        4.875473       13.604457
 H         6.360373        5.238430       15.743416
 H         3.362557        1.106132       14.527330
 H         2.039101        1.114320       13.749990
 H         5.655848        1.480795       10.873818
 H         5.212547        2.741053       10.096026
 H         5.030158        2.641463       14.495474
 H         5.581060        1.419768       13.755172
 H         1.651358        4.649518       16.165499
 H         1.238903        3.391511       16.924498
 H         1.767582        4.814349       11.513732
 H         1.667811        4.682460       13.046096
 H         2.197006        5.116010        9.274017
 H         2.633680        6.387031       10.031390
 H         3.522808        1.137906       10.050508
 H         2.647176       14.463050       10.038804
 H         7.407684        1.165150       12.334761
 H         6.514449       14.504112       12.319108
 H         5.968357        1.194728       16.044813
 H         5.972529        1.204623       17.589344
 H         7.709980        5.242956       16.679548
 H         6.694365        6.611581       16.675993
 H         0.330544        1.294353       16.830257
 H         1.655994        1.329467       16.040148
 H         9.162508       10.063068       12.249249
 H         9.633132        8.804525       11.469941
 H        12.055076       12.124664       10.036563
 H        13.398663       12.126471        9.268963
 H        13.759662       12.324296       13.097597
 H        13.760122       12.336540       11.546821
 H        12.041239       12.116665       14.600371
 H        13.382545       12.083893       15.367335
 H         9.918820        8.505701       13.751051
 H         9.893715        8.508208       15.303226
 H         9.904458       12.423829       15.382114
 H        10.342999       13.689309       14.610853
 H        13.444050        8.741971       10.828603
 H        13.010204       10.014786       10.055544
 H        12.061041        8.740955       14.541905
 H        12.962809        9.986164       14.552637
 H         9.503015       12.122005       17.635389
 H         8.173518       12.137772       16.840183
 H         9.511827       12.159554       13.125802
 H         8.176760       12.148643       12.344329
 H        10.359199       13.681908       10.088026
 H         9.921863       12.428041       10.875573
 H        10.457331        7.205968       10.004821
 H        11.349758        8.464207       10.006945
 H        13.801043        8.403921       13.071982
 H        14.211826        7.133156       12.298637
 H        13.803269        8.390206       16.007113
 H        14.227973        7.131116       16.796511
 H        15.147380       12.349294       16.850193
 H        13.806895       12.315500       17.623602
 H         9.556892        8.784842       17.613758
 H         9.076621       10.040255       16.844627
 H         1.723879        8.728538       11.422976
 H         0.385577        8.694275       12.200733
 H         4.279695       12.115819       10.074944
 H         5.196486       10.872678       10.049689
 H         6.001335       12.426296       13.092529
 H         6.022460       12.406895       11.546353
 H         5.216503       10.900046       14.545575
 H         4.245297       12.102993       14.578662
 H         3.480623        9.005632       14.537317
 H         2.135590        9.013721       13.786579
 H         2.511074       13.600342       14.542502
 H         2.125014       12.308019       13.797900
 H         5.711681        8.771050       10.781507
 H         5.702148        8.766630        9.238658
 H         5.792037        8.742242       15.239780
 H         5.795143        8.779160       13.698489
 H         1.277186       10.836706       16.895153
 H         1.741508       12.049656       16.055290
 H         1.266769       10.834334       12.240609
 H         0.383763       12.094887       12.297916
 H         2.132947       12.382627       10.850280
 H         2.138457       12.371247        9.303078
 H         3.534706        8.504470        9.981956
 H         2.201814        8.500332        9.195921
 H         7.506168        8.498647       12.220989
 H         6.633167        7.227741       12.190472
 H         6.135171        8.339832       17.597866
 H         7.516499        8.438561       16.853889
 H         6.485675       13.700756       16.783243
 H         6.029565       12.453911       15.992793
 H         1.720151        8.970202       16.080887
 H         0.399667        8.702361       16.860838
