381
 generated by VMD
 O         9.063645        1.989478       12.489696
 O        13.002975        4.509080       10.080454
 O        14.273073        5.419936       12.300362
 O        12.905284        4.510420       14.486173
 O        10.266490        1.063184       14.455681
 O        10.339581        5.423506       14.503063
 O        13.028414        1.783721       10.016100
 O        12.877834        1.737799       14.501127
 O         9.103230        4.490309       16.833702
 O         9.033800        4.404412       12.448919
 O        10.424441        5.345117       10.104620
 O        10.398815        0.922313        9.990962
 O        14.249445        0.837800       12.298821
 O        14.164318        0.865615       16.747673
 O        14.185765        5.422488       16.780930
 O         9.123910        1.762254       16.757866
 O         9.069640        9.069433        3.371864
 O        12.994738       11.809452        1.099212
 O        14.279449       12.701067        3.341047
 O        12.974765       11.796626        5.564284
 O        10.354120        8.180830        5.603610
 O        10.385227       12.697536        5.584887
 O        12.990889        9.073588        1.117540
 O        12.952507        9.059284        5.603958
 O         9.107126       11.810256        7.838564
 O         9.077231       11.814908        3.347216
 O        10.418976       12.743201        1.139002
 O        10.414343        8.140630        1.154563
 O        14.263900        8.153551        3.366193
 O        14.283273        8.146173        7.820522
 O        14.282073       12.693593        7.805284
 O         9.070848        9.076253        7.865271
 O         1.322356        9.059716        3.321825
 O         5.159137       11.758321        1.175588
 O         6.490211       12.711452        3.340647
 O         5.201287       11.788486        5.585669
 O         2.641195        8.166403        5.551507
 O         2.629408       12.700319        5.545217
 O         5.173315        9.033170        1.102298
 O         5.229990        9.058163        5.551094
 O         1.334630       11.776328        7.791189
 O         1.324527       11.796336        3.303880
 O         2.583365       12.705928        1.068187
 O         2.602599        8.102856        1.076734
 O         6.495510        8.152910        3.314266
 O         6.501645        8.148204        7.811973
 O         6.502278       12.695455        7.822074
 O         1.332600        9.043081        7.789827
 O         1.290360        1.759209        3.321619
 O         5.187969        4.484589        1.125146
 O         6.500347        5.422062        3.356082
 O         5.197555        4.488253        5.570145
 O         2.622494        0.830305        5.511261
 O         2.617764        5.429225        5.570926
 O         5.188676        1.750664        1.138928
 O         5.192532        1.751635        5.528752
 O         1.338177        4.494272        7.804357
 O         1.280642        4.493920        3.360864
 O         2.583707        5.372032        1.101608
 O         2.589895        0.833185        1.084821
 O         6.493227        0.851197        3.329495
 O         6.503137        0.836402        7.706035
 O         6.521565        5.422854        7.777530
 O         1.368818        1.745535        7.759735
 O         9.065251        1.764153        3.342151
 O        12.975021        4.483320        1.107160
 O        14.232566        5.410970        3.363081
 O        12.950901        4.494314        5.613580
 O        10.357422        0.839359        5.567938
 O        10.396666        5.451936        5.603949
 O        12.966221        1.750690        1.106156
 O        12.950120        1.755386        5.595217
 O         9.110395        4.495086        7.838155
 O         9.097718        4.501230        3.367654
 O        10.398998        5.398370        1.134896
 O        10.376511        0.873803        1.114728
 O        14.239050        0.833171        3.348178
 O        14.309318        0.831557        7.780817
 O        14.282163        5.409080        7.851425
 O         9.082843        1.742818        7.786505
 O         1.326790        1.762230       12.250143
 O         5.234192        4.518373       10.010891
 O         6.663578        5.442595       12.167087
 O         5.266251        5.486504       14.663224
 O         2.450157        0.781450       14.590813
 O         2.494341        5.469397       14.579385
 O         5.258992        1.753862        9.938834
 O         1.252770        4.470776       16.831718
 O         1.291390        4.495841       12.288618
 O         2.620248        5.404261       10.054630
 O         2.679259        0.855791       10.003458
 O         6.884919        0.790979       11.815899
 O         6.582566        0.772979       16.905939
 O         6.605279        5.461287       16.922581
 O         1.197037        1.731937       16.830051
 O         9.076751        9.056646       12.311227
 O        12.976456       11.766706       10.050598
 O        14.243129       12.708014       12.297448
 O        12.936536       11.822013       14.547662
 O        10.356771        8.133400       14.567667
 O        10.383111       12.760276       14.560109
 O        12.986002        9.024549       10.069872
 O        12.954201        9.071490       14.557697
 O         9.148147       11.792659       16.862719
 O         9.093046       11.782262       12.329830
 O        10.390493       12.721443       10.097903
 O        10.405851        8.129999       10.079569
 O        14.281969        8.161032       12.321636
 O        14.248694        8.165104       16.791534
 O        14.233578       12.715218       16.771217
 O         9.156209        9.062579       16.828976
 O         1.319597        9.060256       12.315700
 O         5.182683       11.785641       10.056865
 O         6.474985       12.623022       12.355561
 O         5.167794       11.740546       14.651084
 O         2.612945        8.170989       14.546943
 O         2.562775       12.632153       14.551091
 O         5.165595        9.048113       10.028635
 O         5.233131        8.997547       14.536889
 O         1.258635       11.781179       16.789673
 O         1.316608       11.801826       12.272856
 O         2.613361       12.708821       10.030832
 O         2.579473        8.138500       10.058395
 O         6.503637        8.158805       12.257153
 O         6.536004        8.179391       16.847116
 O         6.510296       12.621407       16.893509
 O         1.306029        9.037883       16.785007
 H         9.526773        1.604660       13.317411
 H         9.012772        3.055650       12.505628
 H        13.476920        4.846005       10.851339
 H        13.466925        4.843510        9.302868
 H        15.188665        5.112371       12.304982
 H        14.301689        6.382873       12.319109
 H        13.402232        4.807638       13.715182
 H        12.929884        3.549568       14.479420
 H        11.203876        1.314244       14.487269
 H         9.862840        1.315668       15.306891
 H        10.355782        6.389512       14.529517
 H        11.258489        5.128207       14.497882
 H        12.112542        1.502143        9.978684
 H        13.020379        2.747944       10.036815
 H        13.371653        1.405374       13.742226
 H        13.341652        1.427298       15.289796
 H         8.194661        4.828379       16.845556
 H         9.512156        4.833562       16.037508
 H         9.483756        4.807110       13.217469
 H         8.142740        4.810905       12.361233
 H        11.341711        5.040973       10.119751
 H        10.009606        5.026727       10.902960
 H         9.909592        1.213415        9.206468
 H         9.981088        1.326106       10.740175
 H        14.242490       14.476215       12.275020
 H        13.818579        1.138418       11.493722
 H        15.076509        1.182038       16.784643
 H        13.744248        1.173769       17.557699
 H        14.201217        6.385550       16.767309
 H        13.737679        5.138368       15.980783
 H         9.068947        2.725267       16.795904
 H         8.216330        1.429929       16.786798
 H         9.048899       10.031967        3.353280
 H         8.153829        8.770228        3.339858
 H        12.996211       10.846073        1.081739
 H        13.435184       12.105175        0.295186
 H        15.187428       12.378929        3.310728
 H        13.845797       12.379176        2.542879
 H        13.444811       12.124658        6.337797
 H        13.452778       12.116277        4.790661
 H         9.878075        8.504632        4.829626
 H         9.886614        8.510193        6.377395
 H        11.291460       12.372541        5.550426
 H         9.938996       12.366908        4.796948
 H        12.088500        8.737550        1.145343
 H        13.427601        8.745013        1.910665
 H        12.939945       10.022335        5.588630
 H        12.033735        8.771227        5.602738
 H         9.575371       12.150536        8.606004
 H         9.575124       12.127959        7.057973
 H         8.172348       12.146110        3.320430
 H         9.522937       12.150979        2.562620
 H        11.334499       12.443818        1.138166
 H        10.434022       13.706223        1.136821
 H        10.396586        7.177730        1.166765
 H         9.939148        8.439308        1.936416
 H        14.247329        7.190765        3.380714
 H        13.800405        8.449368        4.156316
 H        15.187962        8.475841        7.781293
 H        13.830940        8.476599        7.036672
 H        14.283236       13.656500        7.826591
 H        13.823417       12.395204        8.596519
 H         9.546175        8.768002        8.642975
 H         9.098715       10.038895        7.881661
 H         1.303078       10.022753        3.306487
 H         0.406659        8.763581        3.341077
 H         5.124037       10.795386        1.154793
 H         4.251264       12.075288        1.122583
 H         6.032192       12.388165        4.122913
 H         6.004386       12.365988        2.581614
 H         5.663388       12.080277        6.377608
 H         5.225055       10.825074        5.589798
 H         2.197106        8.494816        4.761831
 H         3.545430        8.496896        5.523349
 H         2.187929       12.370238        6.334385
 H         3.533596       12.368544        5.576648
 H         5.630856        8.736335        0.306451
 H         4.276928        8.682660        1.062170
 H         5.693416        8.721247        6.324227
 H         5.696216        8.727080        4.774446
 H         0.419648       12.075008        7.792220
 H         1.313416       10.813157        7.786260
 H         1.783549       12.133297        2.525096
 H         1.803343       12.118971        4.074069
 H         2.583749       13.669765        1.044800
 H         2.123597       12.407368        0.276532
 H         2.148366        8.414751        1.865459
 H         2.581732        7.139513        1.105124
 H         6.488585        7.189456        3.305187
 H         6.022806        8.441465        2.524348
 H         6.040286        8.471271        8.593907
 H         7.399164        8.494746        7.856578
 H         6.062901       12.372401        8.615740
 H         7.407810       12.370842        7.848864
 H         1.815459        8.721044        7.020680
 H         1.786995        8.711123        8.571704
 H         0.376458        1.457513        3.326223
 H         1.265751        2.722189        3.335203
 H         4.282031        4.809118        1.126393
 H         5.613953        4.828174        1.915450
 H         7.403076        5.089985        3.372311
 H         6.063411        5.082143        4.143984
 H         5.202205        3.525094        5.579716
 H         5.664911        4.783241        6.357872
 H         2.148652        1.130175        4.726917
 H         2.614539       14.469028        5.496805
 H         3.529883        5.121305        5.561666
 H         2.649611        6.392035        5.559440
 H         5.197402        2.713449        1.098446
 H         5.655950        1.436943        0.358210
 H         5.632023        1.431138        4.731032
 H         4.287397        1.421467        5.498386
 H         1.355684        3.532201        7.766858
 H         1.789160        4.809752        7.013386
 H         1.731445        4.833521        4.140519
 H         0.380234        4.833677        3.386616
 H         2.114654        5.039553        0.327895
 H         2.112011        5.043312        1.872711
 H         3.492613        1.168599        1.092840
 H         2.160129        1.170553        1.876395
 H         6.481341       14.490389        3.308235
 H         6.027990        1.154488        2.538597
 H         6.036156        1.126503        6.911645
 H         6.484151       14.475473        7.713213
 H         7.438173        5.132703        7.796285
 H         6.532837        6.387075        7.780842
 H         1.797346        1.414621        6.962224
 H         0.465132        1.415375        7.742511
 H         8.147376        1.468559        3.333173
 H         9.051428        2.727265        3.357460
 H        12.996185        3.520423        1.085484
 H        13.412018        4.793029        0.306686
 H        13.761782        5.071804        4.130886
 H        13.778197        5.076558        2.582433
 H        12.056022        4.851078        5.636864
 H        13.401710        4.822089        6.398053
 H        10.361540       14.478210        5.545149
 H         9.902449        1.137284        4.771490
 H         9.933107        5.146333        6.389038
 H        10.367446        6.415349        5.618669
 H        13.403191        1.411747        1.895037
 H        12.055053        1.440596        1.138804
 H        12.034971        1.457963        5.584496
 H        12.929925        2.718601        5.597507
 H         9.574343        4.763160        8.636069
 H         9.111666        3.533017        7.823698
 H         9.566806        4.820721        2.588814
 H         9.566876        4.844893        4.133799
 H         9.959948        5.074163        0.341300
 H        11.301367        5.061484        1.108676
 H         9.888664        1.204963        1.877166
 H         9.921231        1.192842        0.329831
 H        13.784753        1.130721        4.142400
 H        14.246224       14.472045        3.370240
 H        13.865688        1.184438        8.557926
 H        13.821087        1.160443        7.017740
 H        14.311347        6.372109        7.834565
 H        15.195592        5.102934        7.830747
 H         8.176204        1.417755        7.736738
 H         9.529483        1.419536        6.993067
 H         1.778020        1.428466       11.469959
 H         0.431226        1.414517       12.231452
 H         5.677876        4.822285        9.211374
 H         5.235916        3.558355        9.976552
 H         6.150806        5.127510       11.415478
 H         6.603260        6.405766       12.168429
 H         5.650519        5.277200       13.819456
 H         4.323062        5.341636       14.600843
 H         2.127398        1.158464       13.765701
 H         3.363034        1.071685       14.683053
 H         2.071336        5.083317       15.351164
 H         2.075767        5.087455       13.804595
 H         5.637267        1.435798        9.109921
 H         4.351553        1.425970        9.975717
 H         0.341550        4.774219       16.817480
 H         1.228387        3.507676       16.824934
 H         1.769962        4.797552       11.510673
 H         1.320648        3.533043       12.269250
 H         3.528573        5.089075       10.031800
 H         2.191756        5.071318        9.258882
 H         2.646466       14.495394        9.997177
 H         2.216139        1.150924        9.212146
 H         8.199918        1.568973       12.305815
 H         6.273675        1.159188       11.148670
 H         6.041466        1.054792       16.160069
 H         6.542095       14.410526       16.890245
 H         6.086252        5.090218       17.641695
 H         6.095961        5.337498       16.106270
 H         1.701889        1.411151       17.585026
 H         1.653173        1.409312       16.044802
 H         8.165884        8.740639       12.270925
 H         9.524810        8.721348       11.528752
 H        12.959221       10.803396       10.049116
 H        12.062776       12.064083       10.061015
 H        13.775381       12.379313       13.072227
 H        13.787583       12.356028       11.526100
 H        13.407475       12.117738       15.336329
 H        12.940425       10.859035       14.571384
 H         9.910583        8.471834       15.353873
 H         9.882481        8.473893       13.802757
 H        11.304777       12.471260       14.558847
 H        10.382874       13.714139       14.527592
 H        13.463494        8.712429       10.846874
 H        13.463120        8.703472        9.296700
 H        13.391500        8.746609       15.352993
 H        12.054428        8.732153       14.577495
 H         9.581588       12.149613       16.084711
 H         9.614734       12.146238       17.628208
 H         9.105003       10.817781       12.340180
 H         9.541731       12.077709       13.127735
 H         9.929287       12.420091       10.888641
 H        10.381829       13.679373       10.110449
 H        10.427444        7.170340       10.079985
 H        11.324405        8.424015       10.079273
 H        13.839537        8.492073       13.109810
 H        15.186700        8.495304       12.348120
 H        15.161990        8.474807       16.800398
 H        13.833245        8.495343       17.594704
 H        14.244201       13.677989       16.769978
 H        15.152152       12.419627       16.774282
 H         9.174170       10.025207       16.860373
 H         9.601874        8.752469       17.623682
 H         1.790261        8.772608       13.107793
 H         1.331781       10.023439       12.318048
 H         5.600512       12.076261       10.871937
 H         4.279614       12.123988       10.068956
 H         7.388824       12.317826       12.358255
 H         6.519611       13.570041       12.321568
 H         5.629024       12.082225       15.424473
 H         5.627809       12.090569       13.886565
 H         3.544245        8.417613       14.546566
 H         2.581397        7.206182       14.555778
 H         2.563483       13.595252       14.563887
 H         3.485035       12.357467       14.594989
 H         4.251454        8.743718       10.040505
 H         5.137174       10.010529       10.029350
 H         5.683946        8.671012       15.321554
 H         5.229217        9.957649       14.606889
 H         1.276609       10.818152       16.785265
 H         1.727090       12.064487       15.995677
 H         1.756516       12.112329       13.073680
 H         0.413031       12.128754       12.310055
 H         2.149935       12.365659        9.259179
 H         2.138647       12.390044       10.806520
 H         2.132861        8.440680       10.856874
 H         2.578195        7.175550       10.084593
 H         6.004682        8.492135       11.504364
 H         6.034038        8.436095       13.053978
 H         6.580849        7.217065       16.900219
 H         7.445066        8.490561       16.847153
 H         7.413484       12.295685       16.918928
 H         6.064284       12.301881       17.684225
 H         1.786270        8.730451       16.007015
 H         1.779203        8.699814       17.552395
