381
 generated by VMD
 O         9.068499        1.796276       12.323902
 O        12.979118        4.469653       10.078138
 O        14.288116        5.408669       12.310945
 O        12.983600        4.510063       14.562651
 O        10.369331        0.879921       14.556150
 O        10.405488        5.451305       14.545763
 O        12.962382        1.745170       10.076558
 O        12.955691        1.783972       14.554901
 O         9.105478        4.559538       16.783556
 O         9.111279        4.527267       12.303391
 O        10.401559        5.402081       10.064063
 O        10.370024        0.870605       10.101728
 O        14.244250        0.855165       12.307606
 O        14.269287        0.864346       16.783998
 O        14.295083        5.410580       16.796576
 O         9.086196        1.821068       16.794996
 O         9.051105        9.089664        3.273598
 O        12.988976       11.817425        1.076349
 O        14.268495       12.707861        3.339662
 O        12.882338       11.760614        5.516637
 O        10.276795        8.146656        5.532043
 O        10.306305       12.719078        5.583474
 O        12.971657        9.072598        1.114546
 O        12.836531        9.037055        5.508503
 O         9.030398       11.780919        7.856816
 O         9.103256       11.824558        3.290723
 O        10.409324       12.755081        1.058861
 O        10.392529        8.160639        1.070239
 O        14.254942        8.146882        3.335288
 O        14.022285        8.081478        7.816975
 O        14.137509       12.635226        7.747615
 O         9.063094        9.049121        7.815352
 O         1.316205        9.074026        3.265368
 O         5.212473       11.819783        1.045790
 O         6.503227       12.682243        3.318001
 O         5.233954       11.783724        5.598199
 O         2.631225        8.116879        5.474103
 O         2.653570       12.774187        5.579664
 O         5.212574        9.070160        1.089421
 O         5.217707        9.058105        5.595743
 O         1.473839       12.317375        7.950027
 O         1.358307       11.860126        3.341348
 O         2.616611       12.717632        1.021628
 O         2.636256        8.153277        1.043050
 O         6.482579        8.170657        3.331871
 O         6.500839        8.118126        7.827291
 O         6.403007       12.706754        7.885603
 O         1.327800        1.777336        3.320496
 O         5.230310        4.489265        1.078885
 O         6.494041        5.424009        3.320575
 O         5.225158        4.493379        5.563868
 O         2.619913        0.906663        5.556043
 O         2.636965        5.362734        5.551990
 O         5.224468        1.751068        1.119293
 O         5.228274        1.734026        5.581932
 O         1.291091        4.479971        7.777495
 O         1.332615        4.502593        3.305589
 O         2.643471        5.415254        1.064977
 O         2.627125        0.858613        1.080409
 O         6.490884        0.817266        3.346418
 O         6.517729        0.829384        7.843775
 O         6.516597        5.388813        7.812290
 O         1.260686        1.705432        7.825663
 O         9.061347        1.748065        3.344329
 O        12.986571        4.475546        1.078428
 O        14.260601        5.392171        3.336198
 O        12.921182        4.484856        5.552360
 O        10.349138        0.853817        5.606626
 O        10.341514        5.417007        5.554589
 O        12.981301        1.735851        1.094315
 O        12.940566        1.759048        5.571629
 O         9.108747        4.509621        7.818388
 O         9.075876        4.492237        3.300154
 O        10.407353        5.420620        1.094251
 O        10.369747        0.889596        1.095812
 O        14.271905        0.844680        3.345381
 O        14.191585        0.808589        7.808146
 O        14.204937        5.344081        7.821786
 O         9.080951        1.782044        7.855371
 O         1.279048        1.783220       12.354731
 O         5.238565        4.482547       10.050721
 O         6.515548        5.416451       12.294859
 O         5.228778        4.525442       14.538732
 O         2.615235        0.798499       14.527596
 O         2.642407        5.442996       14.534087
 O         5.240053        1.729523       10.100259
 O         5.203572        1.767586       14.582435
 O         1.357253        4.499770       16.767107
 O         1.334691        4.469858       12.332213
 O         2.636205        5.239878       10.082850
 O         2.589871        0.916363       10.182532
 O         6.506948        0.856326       12.363207
 O         6.509466        0.884669       16.814163
 O         6.503964        5.433053       16.798063
 O         1.334692        1.746533       16.772341
 O         9.098051        9.078653       12.343380
 O        12.908209       11.835524       10.078053
 O        14.304768       12.690654       12.227839
 O        12.982980       11.842132       14.515682
 O        10.413447        8.195048       14.571109
 O        10.397340       12.740222       14.498192
 O        12.895841        9.065425       10.164485
 O        13.004906        9.087202       14.585148
 O         9.110665       11.836142       16.757605
 O         9.029239       11.802402       12.295991
 O        10.325438       12.733591       10.074248
 O        10.310482        8.146610       10.088817
 O        14.274956        8.157792       12.340981
 O        14.266473        8.146898       16.832275
 O        14.290482       12.722974       16.762352
 O         9.098826        9.100901       16.798141
 O         1.300493        9.135898       12.384243
 O         5.122815       11.915361       10.095986
 O         6.405994       12.743275       12.281944
 O         5.194460       11.817499       14.548979
 O         2.614855        8.193469       14.579253
 O         2.603220       12.627844       14.406292
 O         5.328224        9.062086       10.121848
 O         5.221538        9.097072       14.589598
 O         1.340343       11.798151       16.678265
 O         1.535302       11.718554       12.129820
 O         2.725424       12.528546       10.169363
 O         2.827368        7.832092       10.378352
 O         6.536021        8.159316       12.390894
 O         6.521996        8.167424       16.812042
 O         6.521615       12.747130       16.755342
 O         1.310282        9.073074       16.804941
 H         9.529689        1.488669       11.535619
 H         9.090324        2.759864       12.298779
 H        13.457674        4.810705       10.840529
 H        13.434681        4.794679        9.290978
 H        15.192706        5.079391       12.333649
 H        13.852317        5.083643       13.104872
 H        12.083622        4.852953       14.578402
 H        13.423081        4.840474       15.353640
 H         9.935265        1.219522       13.766188
 H        11.275093        1.207781       14.535842
 H         9.942115        5.155946       15.337175
 H        10.399014        6.414014       14.569877
 H        13.397349        1.443475        9.272388
 H        12.982254        2.710009       10.061126
 H        13.410175        1.478141       13.764199
 H        12.978032        2.747765       14.536428
 H         9.542590        4.875608       17.581875
 H         8.198161        4.881360       16.811510
 H         9.576865        4.865301       13.075674
 H         9.584469        4.848747       11.527357
 H         9.968915        5.076540        9.267286
 H        11.307097        5.073337       10.045754
 H        10.373545       14.509814       10.090289
 H        11.290680        1.154348       10.096586
 H        13.789210        1.151457       11.509913
 H        14.253844       14.497088       12.276432
 H        13.802164        1.173797       17.567974
 H        13.790697        1.205030       16.021168
 H        14.308248        6.373649       16.815325
 H        15.212010        5.118057       16.786419
 H         9.106383        2.783881       16.766054
 H         9.541655        1.509336       16.005991
 H         9.085357       10.051789        3.253971
 H         9.524152        8.777716        2.494770
 H        13.431966       12.137288        0.284467
 H        12.089688       12.160585        1.046979
 H        13.811958       12.388159        2.554753
 H        13.784465       12.360631        4.096365
 H        12.854715       10.795720        5.510734
 H        11.970673       12.068476        5.529387
 H         9.847340        8.485128        4.739611
 H        11.188807        8.461132        5.499104
 H         9.855326       12.412525        6.375395
 H        10.312990       13.681828        5.620168
 H        12.990205       10.034828        1.130818
 H        13.431100        8.768350        1.906440
 H        13.364425        8.712591        4.770360
 H        13.262640        8.714555        6.309356
 H         9.025898       10.816118        7.840232
 H         8.112805       12.062894        7.865149
 H         9.579823       12.169497        2.528481
 H         9.550763       12.150706        4.078573
 H         9.948093       12.453362        0.269668
 H        10.380350       13.717896        1.046875
 H        10.421979        7.197935        1.080428
 H        11.306588        8.465344        1.091179
 H        15.167991        8.452276        3.344062
 H        14.284313        7.184914        3.343950
 H        13.675209        8.445843        8.638617
 H        14.919621        8.417335        7.737170
 H        13.704515       12.292773        6.953368
 H        15.025035       12.302060        7.734849
 H         9.487673        8.731646        7.010247
 H         8.163206        8.702977        7.803118
 H         1.342480       10.034184        3.283101
 H         1.775023        8.790700        2.468513
 H         5.672403       12.141116        1.828171
 H         5.694275       12.154041        0.282525
 H         7.414664       12.369606        3.323750
 H         6.084214       12.337631        4.112588
 H         5.202082       10.818751        5.604992
 H         4.323307       12.090355        5.571299
 H         2.160467        8.450943        4.699618
 H         2.095825        8.395541        6.220595
 H         2.178380       12.439487        4.809255
 H         2.651803       13.735824        5.506323
 H         5.223104       10.032610        1.094524
 H         5.658504        8.781761        1.894159
 H         4.311628        8.729979        5.587851
 H         5.631819        8.710445        6.393081
 H         1.914439       12.427834        7.086922
 H         2.264814       12.388412        9.312063
 H         1.768400       12.177719        2.531698
 H         0.442798       12.156672        3.326235
 H         2.191563       12.383746        0.226397
 H         3.522818       12.392170        1.009632
 H         2.660306        7.190365        1.054148
 H         3.550701        8.455125        1.057726
 H         6.061097        8.492599        4.136228
 H         7.385257        8.507612        3.333088
 H         6.487553        7.154470        7.842043
 H         6.070459        8.415825        8.634609
 H         6.450716       13.669266        7.834794
 H         5.987957       12.399897        7.069572
 H         1.337540        2.741509        3.289256
 H         1.786496        1.470696        2.531518
 H         5.244572        3.527285        1.118781
 H         5.672647        4.806202        1.874245
 H         6.484169        6.386857        3.343733
 H         6.043421        5.122922        4.117272
 H         4.304223        4.780929        5.568599
 H         5.213758        3.531952        5.559390
 H         2.157792        1.240891        4.777639
 H         2.126398        1.205312        6.325459
 H         2.622011        6.325594        5.548190
 H         2.156836        5.086089        6.340429
 H         4.316596        1.430003        1.125048
 H         5.646795        1.408155        1.914827
 H         5.652328        1.414027        6.383796
 H         4.313351        1.434646        5.603816
 H         0.382704        4.798823        7.789148
 H         1.243994        3.521764        7.783247
 H         1.804373        4.844381        2.539539
 H         1.800890        4.819164        4.086832
 H         3.543855        5.074754        1.051129
 H         2.209925        5.083759        0.271687
 H         2.173573        1.165116        0.288291
 H         2.612920       14.498308        1.044697
 H         6.041615        1.114551        4.145453
 H         6.482775       14.456176        3.361590
 H         7.418747        1.173269        7.853758
 H         6.088067        1.163306        8.637491
 H         6.043097        5.056858        8.583302
 H         6.043971        5.067174        7.037042
 H         0.357420        1.372115        7.848149
 H         1.683519        1.430866        8.640051
 H         8.162249        1.402902        3.363844
 H         9.497061        1.429021        4.141366
 H        13.449299        4.776752        0.289849
 H        12.997353        3.512963        1.060437
 H        15.168417        5.072365        3.321117
 H        13.838367        5.061282        2.537266
 H        12.023959        4.833760        5.529315
 H        13.375366        4.825855        4.774349
 H        11.256410        1.177476        5.608930
 H         9.929709        1.196841        6.402680
 H         9.890902        5.106355        4.762668
 H        10.311733        6.380350        5.528619
 H        12.070402        1.425565        1.124408
 H        13.417193        1.409023        1.888813
 H        13.406292        1.460209        4.783587
 H        12.941107        2.723364        5.544448
 H         9.531180        4.838531        7.016540
 H         8.201131        4.833258        7.803346
 H         8.163336        4.800102        3.303679
 H         9.045313        3.530075        3.315009
 H        11.306569        5.075982        1.108113
 H         9.965343        5.082401        1.880470
 H         9.910240        1.239662        0.325656
 H         9.893599        1.201923        1.872726
 H        14.298208       14.483690        3.353106
 H        15.184885        1.149968        3.338801
 H        13.753692        1.139045        7.014627
 H        14.149297       14.451742        7.763580
 H        13.751983        5.052622        7.023886
 H        14.159868        6.306676        7.815535
 H         9.097163        2.746356        7.858012
 H         9.541913        1.491604        8.649213
 H         0.358997        1.496818       12.342838
 H         1.277161        2.751227       12.368633
 H         5.243307        3.522010       10.067490
 H         4.307761        4.744907       10.051148
 H         6.079708        5.094198       11.498116
 H         7.422519        5.094089       12.269266
 H         5.226326        3.563863       14.528735
 H         5.686966        4.811908       13.740773
 H         2.599047       14.441933       14.468590
 H         2.141622        1.133246       13.758395
 H         2.652736        6.405549       14.548337
 H         3.560924        5.154370       14.535389
 H         5.664863        1.420106       10.907701
 H         4.321473        1.456084       10.146629
 H         4.306046        1.422661       14.590647
 H         5.635153        1.452890       15.385046
 H         1.359814        3.537916       16.739931
 H         1.810234        4.804979       15.973915
 H         1.817583        4.834801       13.081246
 H         1.799384        4.751975       11.532269
 H         2.163876        5.026955        9.273768
 H         2.676903        6.209183       10.143551
 H         2.112958        1.243555       10.960796
 H         2.601873       14.573692       10.259929
 H         7.408756        1.198809       12.366816
 H         6.074533        1.194965       13.155549
 H         6.080148        1.195775       17.619183
 H         7.407463        1.233450       16.823551
 H         6.038269        5.082150       17.565434
 H         6.042939        5.108154       16.017897
 H         0.424054        1.432715       16.759817
 H         1.762088        1.390182       15.987922
 H         9.591346        8.764395       13.109209
 H         9.540896        8.735572       11.558290
 H        13.310175       12.108036        9.247794
 H        12.002989       12.166034       10.069458
 H        15.191315       12.345526       12.166690
 H        13.826611       12.373276       11.449192
 H        13.420613       12.150723       13.718832
 H        12.075980       12.165827       14.481091
 H         9.969126        8.522159       15.360868
 H        11.319103        8.521267       14.601979
 H        10.372404       13.703394       14.498184
 H         9.914133       12.445956       13.720180
 H        11.979688        8.770948       10.146446
 H        12.879299       10.025290       10.133302
 H        13.451903        8.767748       13.792919
 H        13.016733       10.047956       14.541967
 H         9.570661       12.118220       15.960986
 H         9.116431       10.872418       16.758635
 H         8.112499       12.086382       12.297420
 H         9.029146       10.837778       12.314708
 H         9.864027       12.389773        9.301386
 H         9.858576       12.393710       10.844952
 H        10.335695        7.184570       10.055736
 H         9.876587        8.440647        9.280503
 H        14.281275        7.195368       12.307554
 H        13.798122        8.456443       11.557907
 H        13.796679        8.479133       17.605530
 H        13.805972        8.486275       16.057875
 H        13.820521       12.436432       15.972774
 H        14.275047       13.686043       16.756002
 H         8.196407        8.764127       16.818213
 H         9.538280        8.759784       17.585264
 H         0.402396        8.784809       12.363895
 H         1.728455        8.788358       13.175482
 H         5.595795       12.212320        9.299177
 H         5.609921       12.239660       10.872780
 H         6.450554       13.706100       12.341415
 H         5.983761       12.432755       13.092066
 H         5.660418       12.138259       15.330182
 H         5.227510       10.853188       14.583132
 H         2.180486        8.507289       15.380562
 H         3.518395        8.523973       14.599638
 H         2.145932       12.319698       15.200050
 H         3.519888       12.336613       14.491412
 H         5.774143        8.780589       10.928724
 H         5.290595       10.014753       10.136964
 H         5.690547        8.750393       13.821878
 H         5.683627        8.759059       15.365087
 H         1.301836       10.835961       16.730328
 H         0.429661       12.110849       16.711348
 H         1.440393       10.745190       12.218800
 H         1.919517       12.042935       12.963661
 H         2.215272       12.131137       11.000268
 H         3.713318       12.259115       10.125985
 H         3.648603        8.304102       10.261862
 H         2.295201        8.315273       11.004055
 H         7.457937        8.440728       12.387349
 H         6.537105        7.196522       12.353950
 H         6.500178        7.204214       16.825132
 H         6.060254        8.465134       17.603922
 H         7.437380       12.447846       16.752104
 H         6.543944       13.710069       16.776817
 H         0.408226        8.736163       16.835510
 H         1.760106        8.741359       17.591305
381
 generated by VMD
 O         9.068499        1.796276       12.323902
 O        12.979118        4.469653       10.078138
 O        14.288116        5.408669       12.310945
 O        12.983600        4.510063       14.562651
 O        10.369331        0.879921       14.556150
 O        10.405488        5.451305       14.545763
 O        12.962382        1.745170       10.076558
 O        12.955691        1.783972       14.554901
 O         9.105478        4.559538       16.783556
 O         9.111279        4.527267       12.303391
 O        10.401559        5.402081       10.064063
 O        10.370024        0.870605       10.101728
 O        14.244250        0.855165       12.307606
 O        14.269287        0.864346       16.783998
 O        14.295083        5.410580       16.796576
 O         9.086196        1.821068       16.794996
 O         9.051105        9.089664        3.273598
 O        12.988976       11.817425        1.076349
 O        14.268495       12.707861        3.339662
 O        12.882338       11.760614        5.516637
 O        10.276795        8.146656        5.532043
 O        10.306305       12.719078        5.583474
 O        12.971657        9.072598        1.114546
 O        12.836531        9.037055        5.508503
 O         9.030398       11.780919        7.856816
 O         9.103256       11.824558        3.290723
 O        10.409324       12.755081        1.058861
 O        10.392529        8.160639        1.070239
 O        14.254942        8.146882        3.335288
 O        14.022285        8.081478        7.816975
 O        14.137509       12.635226        7.747615
 O         9.063094        9.049121        7.815352
 O         1.316205        9.074026        3.265368
 O         5.212473       11.819783        1.045790
 O         6.503227       12.682243        3.318001
 O         5.233954       11.783724        5.598199
 O         2.631225        8.116879        5.474103
 O         2.653570       12.774187        5.579664
 O         5.212574        9.070160        1.089421
 O         5.217707        9.058105        5.595743
 O         1.473839       12.317375        7.950027
 O         1.358307       11.860126        3.341348
 O         2.616611       12.717632        1.021628
 O         2.636256        8.153277        1.043050
 O         6.482579        8.170657        3.331871
 O         6.500839        8.118126        7.827291
 O         6.403007       12.706754        7.885603
 O         1.327800        1.777336        3.320496
 O         5.230310        4.489265        1.078885
 O         6.494041        5.424009        3.320575
 O         5.225158        4.493379        5.563868
 O         2.619913        0.906663        5.556043
 O         2.636965        5.362734        5.551990
 O         5.224468        1.751068        1.119293
 O         5.228274        1.734026        5.581932
 O         1.291091        4.479971        7.777495
 O         1.332615        4.502593        3.305589
 O         2.643471        5.415254        1.064977
 O         2.627125        0.858613        1.080409
 O         6.490884        0.817266        3.346418
 O         6.517729        0.829384        7.843775
 O         6.516597        5.388813        7.812290
 O         1.260686        1.705432        7.825663
 O         9.061347        1.748065        3.344329
 O        12.986571        4.475546        1.078428
 O        14.260601        5.392171        3.336198
 O        12.921182        4.484856        5.552360
 O        10.349138        0.853817        5.606626
 O        10.341514        5.417007        5.554589
 O        12.981301        1.735851        1.094315
 O        12.940566        1.759048        5.571629
 O         9.108747        4.509621        7.818388
 O         9.075876        4.492237        3.300154
 O        10.407353        5.420620        1.094251
 O        10.369747        0.889596        1.095812
 O        14.271905        0.844680        3.345381
 O        14.191585        0.808589        7.808146
 O        14.204937        5.344081        7.821786
 O         9.080951        1.782044        7.855371
 O         1.279048        1.783220       12.354731
 O         5.238565        4.482547       10.050721
 O         6.515548        5.416451       12.294859
 O         5.228778        4.525442       14.538732
 O         2.615235        0.798499       14.527596
 O         2.642407        5.442996       14.534087
 O         5.240053        1.729523       10.100259
 O         5.203572        1.767586       14.582435
 O         1.357253        4.499770       16.767107
 O         1.334691        4.469858       12.332213
 O         2.636205        5.239878       10.082850
 O         2.589871        0.916363       10.182532
 O         6.506948        0.856326       12.363207
 O         6.509466        0.884669       16.814163
 O         6.503964        5.433053       16.798063
 O         1.334692        1.746533       16.772341
 O         9.098051        9.078653       12.343380
 O        12.908209       11.835524       10.078053
 O        14.304768       12.690654       12.227839
 O        12.982980       11.842132       14.515682
 O        10.413447        8.195048       14.571109
 O        10.397340       12.740222       14.498192
 O        12.895841        9.065425       10.164485
 O        13.004906        9.087202       14.585148
 O         9.110665       11.836142       16.757605
 O         9.029239       11.802402       12.295991
 O        10.325438       12.733591       10.074248
 O        10.310482        8.146610       10.088817
 O        14.274956        8.157792       12.340981
 O        14.266473        8.146898       16.832275
 O        14.290482       12.722974       16.762352
 O         9.098826        9.100901       16.798141
 O         1.300493        9.135898       12.384243
 O         5.122815       11.915361       10.095986
 O         6.405994       12.743275       12.281944
 O         5.194460       11.817499       14.548979
 O         2.614855        8.193469       14.579253
 O         2.603220       12.627844       14.406292
 O         5.328224        9.062086       10.121848
 O         5.221538        9.097072       14.589598
 O         1.340343       11.798151       16.678265
 O         1.535302       11.718554       12.129820
 O         2.725424       12.528546       10.169363
 O         2.827368        7.832092       10.378352
 O         6.536021        8.159316       12.390894
 O         6.521996        8.167424       16.812042
 O         6.521615       12.747130       16.755342
 O         1.310282        9.073074       16.804941
 H         9.529689        1.488669       11.535619
 H         9.090324        2.759864       12.298779
 H        13.457674        4.810705       10.840529
 H        13.434681        4.794679        9.290978
 H        15.192706        5.079391       12.333649
 H        13.852317        5.083643       13.104872
 H        12.083622        4.852953       14.578402
 H        13.423081        4.840474       15.353640
 H         9.935265        1.219522       13.766188
 H        11.275093        1.207781       14.535842
 H         9.942115        5.155946       15.337175
 H        10.399014        6.414014       14.569877
 H        13.397349        1.443475        9.272388
 H        12.982254        2.710009       10.061126
 H        13.410175        1.478141       13.764199
 H        12.978032        2.747765       14.536428
 H         9.542590        4.875608       17.581875
 H         8.198161        4.881360       16.811510
 H         9.576865        4.865301       13.075674
 H         9.584469        4.848747       11.527357
 H         9.968915        5.076540        9.267286
 H        11.307097        5.073337       10.045754
 H        10.373545       14.509814       10.090289
 H        11.290680        1.154348       10.096586
 H        13.789210        1.151457       11.509913
 H        14.253844       14.497088       12.276432
 H        13.802164        1.173797       17.567974
 H        13.790697        1.205030       16.021168
 H        14.308248        6.373649       16.815325
 H        15.212010        5.118057       16.786419
 H         9.106383        2.783881       16.766054
 H         9.541655        1.509336       16.005991
 H         9.085357       10.051789        3.253971
 H         9.524152        8.777716        2.494770
 H        13.431966       12.137288        0.284467
 H        12.089688       12.160585        1.046979
 H        13.811958       12.388159        2.554753
 H        13.784465       12.360631        4.096365
 H        12.854715       10.795720        5.510734
 H        11.970673       12.068476        5.529387
 H         9.847340        8.485128        4.739611
 H        11.188807        8.461132        5.499104
 H         9.855326       12.412525        6.375395
 H        10.312990       13.681828        5.620168
 H        12.990205       10.034828        1.130818
 H        13.431100        8.768350        1.906440
 H        13.364425        8.712591        4.770360
 H        13.262640        8.714555        6.309356
 H         9.025898       10.816118        7.840232
 H         8.112805       12.062894        7.865149
 H         9.579823       12.169497        2.528481
 H         9.550763       12.150706        4.078573
 H         9.948093       12.453362        0.269668
 H        10.380350       13.717896        1.046875
 H        10.421979        7.197935        1.080428
 H        11.306588        8.465344        1.091179
 H        15.167991        8.452276        3.344062
 H        14.284313        7.184914        3.343950
 H        13.675209        8.445843        8.638617
 H        14.919621        8.417335        7.737170
 H        13.704515       12.292773        6.953368
 H        15.025035       12.302060        7.734849
 H         9.487673        8.731646        7.010247
 H         8.163206        8.702977        7.803118
 H         1.342480       10.034184        3.283101
 H         1.775023        8.790700        2.468513
 H         5.672403       12.141116        1.828171
 H         5.694275       12.154041        0.282525
 H         7.414664       12.369606        3.323750
 H         6.084214       12.337631        4.112588
 H         5.202082       10.818751        5.604992
 H         4.323307       12.090355        5.571299
 H         2.160467        8.450943        4.699618
 H         2.095825        8.395541        6.220595
 H         2.178380       12.439487        4.809255
 H         2.651803       13.735824        5.506323
 H         5.223104       10.032610        1.094524
 H         5.658504        8.781761        1.894159
 H         4.311628        8.729979        5.587851
 H         5.631819        8.710445        6.393081
 H         1.914439       12.427834        7.086922
 H         2.264814       12.388412        9.312063
 H         1.768400       12.177719        2.531698
 H         0.442798       12.156672        3.326235
 H         2.191563       12.383746        0.226397
 H         3.522818       12.392170        1.009632
 H         2.660306        7.190365        1.054148
 H         3.550701        8.455125        1.057726
 H         6.061097        8.492599        4.136228
 H         7.385257        8.507612        3.333088
 H         6.487553        7.154470        7.842043
 H         6.070459        8.415825        8.634609
 H         6.450716       13.669266        7.834794
 H         5.987957       12.399897        7.069572
 H         1.337540        2.741509        3.289256
 H         1.786496        1.470696        2.531518
 H         5.244572        3.527285        1.118781
 H         5.672647        4.806202        1.874245
 H         6.484169        6.386857        3.343733
 H         6.043421        5.122922        4.117272
 H         4.304223        4.780929        5.568599
 H         5.213758        3.531952        5.559390
 H         2.157792        1.240891        4.777639
 H         2.126398        1.205312        6.325459
 H         2.622011        6.325594        5.548190
 H         2.156836        5.086089        6.340429
 H         4.316596        1.430003        1.125048
 H         5.646795        1.408155        1.914827
 H         5.652328        1.414027        6.383796
 H         4.313351        1.434646        5.603816
 H         0.382704        4.798823        7.789148
 H         1.243994        3.521764        7.783247
 H         1.804373        4.844381        2.539539
 H         1.800890        4.819164        4.086832
 H         3.543855        5.074754        1.051129
 H         2.209925        5.083759        0.271687
 H         2.173573        1.165116        0.288291
 H         2.612920       14.498308        1.044697
 H         6.041615        1.114551        4.145453
 H         6.482775       14.456176        3.361590
 H         7.418747        1.173269        7.853758
 H         6.088067        1.163306        8.637491
 H         6.043097        5.056858        8.583302
 H         6.043971        5.067174        7.037042
 H         0.357420        1.372115        7.848149
 H         1.683519        1.430866        8.640051
 H         8.162249        1.402902        3.363844
 H         9.497061        1.429021        4.141366
 H        13.449299        4.776752        0.289849
 H        12.997353        3.512963        1.060437
 H        15.168417        5.072365        3.321117
 H        13.838367        5.061282        2.537266
 H        12.023959        4.833760        5.529315
 H        13.375366        4.825855        4.774349
 H        11.256410        1.177476        5.608930
 H         9.929709        1.196841        6.402680
 H         9.890902        5.106355        4.762668
 H        10.311733        6.380350        5.528619
 H        12.070402        1.425565        1.124408
 H        13.417193        1.409023        1.888813
 H        13.406292        1.460209        4.783587
 H        12.941107        2.723364        5.544448
 H         9.531180        4.838531        7.016540
 H         8.201131        4.833258        7.803346
 H         8.163336        4.800102        3.303679
 H         9.045313        3.530075        3.315009
 H        11.306569        5.075982        1.108113
 H         9.965343        5.082401        1.880470
 H         9.910240        1.239662        0.325656
 H         9.893599        1.201923        1.872726
 H        14.298208       14.483690        3.353106
 H        15.184885        1.149968        3.338801
 H        13.753692        1.139045        7.014627
 H        14.149297       14.451742        7.763580
 H        13.751983        5.052622        7.023886
 H        14.159868        6.306676        7.815535
 H         9.097163        2.746356        7.858012
 H         9.541913        1.491604        8.649213
 H         0.358997        1.496818       12.342838
 H         1.277161        2.751227       12.368633
 H         5.243307        3.522010       10.067490
 H         4.307761        4.744907       10.051148
 H         6.079708        5.094198       11.498116
 H         7.422519        5.094089       12.269266
 H         5.226326        3.563863       14.528735
 H         5.686966        4.811908       13.740773
 H         2.599047       14.441933       14.468590
 H         2.141622        1.133246       13.758395
 H         2.652736        6.405549       14.548337
 H         3.560924        5.154370       14.535389
 H         5.664863        1.420106       10.907701
 H         4.321473        1.456084       10.146629
 H         4.306046        1.422661       14.590647
 H         5.635153        1.452890       15.385046
 H         1.359814        3.537916       16.739931
 H         1.810234        4.804979       15.973915
 H         1.817583        4.834801       13.081246
 H         1.799384        4.751975       11.532269
 H         2.163876        5.026955        9.273768
 H         2.676903        6.209183       10.143551
 H         2.112958        1.243555       10.960796
 H         2.601873       14.573692       10.259929
 H         7.408756        1.198809       12.366816
 H         6.074533        1.194965       13.155549
 H         6.080148        1.195775       17.619183
 H         7.407463        1.233450       16.823551
 H         6.038269        5.082150       17.565434
 H         6.042939        5.108154       16.017897
 H         0.424054        1.432715       16.759817
 H         1.762088        1.390182       15.987922
 H         9.591346        8.764395       13.109209
 H         9.540896        8.735572       11.558290
 H        13.310175       12.108036        9.247794
 H        12.002989       12.166034       10.069458
 H        15.191315       12.345526       12.166690
 H        13.826611       12.373276       11.449192
 H        13.420613       12.150723       13.718832
 H        12.075980       12.165827       14.481091
 H         9.969126        8.522159       15.360868
 H        11.319103        8.521267       14.601979
 H        10.372404       13.703394       14.498184
 H         9.914133       12.445956       13.720180
 H        11.979688        8.770948       10.146446
 H        12.879299       10.025290       10.133302
 H        13.451903        8.767748       13.792919
 H        13.016733       10.047956       14.541967
 H         9.570661       12.118220       15.960986
 H         9.116431       10.872418       16.758635
 H         8.112499       12.086382       12.297420
 H         9.029146       10.837778       12.314708
 H         9.864027       12.389773        9.301386
 H         9.858576       12.393710       10.844952
 H        10.335695        7.184570       10.055736
 H         9.876587        8.440647        9.280503
 H        14.281275        7.195368       12.307554
 H        13.798122        8.456443       11.557907
 H        13.796679        8.479133       17.605530
 H        13.805972        8.486275       16.057875
 H        13.820521       12.436432       15.972774
 H        14.275047       13.686043       16.756002
 H         8.196407        8.764127       16.818213
 H         9.538280        8.759784       17.585264
 H         0.402396        8.784809       12.363895
 H         1.728455        8.788358       13.175482
 H         5.595795       12.212320        9.299177
 H         5.609921       12.239660       10.872780
 H         6.450554       13.706100       12.341415
 H         5.983761       12.432755       13.092066
 H         5.660418       12.138259       15.330182
 H         5.227510       10.853188       14.583132
 H         2.180486        8.507289       15.380562
 H         3.518395        8.523973       14.599638
 H         2.145932       12.319698       15.200050
 H         3.519888       12.336613       14.491412
 H         5.774143        8.780589       10.928724
 H         5.290595       10.014753       10.136964
 H         5.690547        8.750393       13.821878
 H         5.683627        8.759059       15.365087
 H         1.301836       10.835961       16.730328
 H         0.429661       12.110849       16.711348
 H         1.440393       10.745190       12.218800
 H         1.919517       12.042935       12.963661
 H         2.215272       12.131137       11.000268
 H         3.713318       12.259115       10.125985
 H         3.648603        8.304102       10.261862
 H         2.295201        8.315273       11.004055
 H         7.457937        8.440728       12.387349
 H         6.537105        7.196522       12.353950
 H         6.500178        7.204214       16.825132
 H         6.060254        8.465134       17.603922
 H         7.437380       12.447846       16.752104
 H         6.543944       13.710069       16.776817
 H         0.408226        8.736163       16.835510
 H         1.760106        8.741359       17.591305
