381
 generated by VMD
 O         9.125284        1.701908       12.344357
 O        12.943056        4.503048       10.042966
 O        14.270963        5.425782       12.235875
 O        13.057870        4.493093       14.477413
 O        10.492392        0.792125       14.754472
 O        10.492798        5.411999       14.515568
 O        12.981739        1.761954       10.071063
 O        12.965920        1.760081       14.497869
 O         9.865626        4.257122       16.796928
 O         9.072859        4.473263       12.308228
 O        10.354445        5.405465       10.073286
 O        10.395208        0.848498       10.091986
 O        14.249911        0.844475       12.305042
 O        14.267644        0.869345       16.766741
 O        14.264196        5.394633       16.768572
 O         9.471564        1.749624       16.778055
 O         9.099989        9.137013        3.400180
 O        12.946159       11.905235        1.104305
 O        14.257487       12.717374        3.351604
 O        12.955160       11.831401        5.588464
 O        10.408079        8.169935        5.622750
 O        10.375158       12.767085        5.598942
 O        12.992073        9.149298        1.096892
 O        12.991148        9.087520        5.582303
 O         9.108310       11.836818        7.838578
 O         9.086431       11.882453        3.358003
 O        10.308413       12.787262        1.109552
 O        10.403117        8.269957        1.167871
 O        14.281172        8.209678        3.340221
 O        14.258302        8.155837        7.828871
 O        14.256207       12.699542        7.836965
 O         9.117260        9.099882        7.842129
 O         1.346781        9.045937        3.352678
 O         5.169800       11.829152        1.108034
 O         6.482572       12.697054        3.356515
 O         5.196286       11.787024        5.584431
 O         2.639113        8.110913        5.587595
 O         2.615066       12.702991        5.558846
 O         5.192348        9.065504        1.136538
 O         5.207249        9.063550        5.577594
 O         1.302246       11.769653        7.785070
 O         1.277258       11.768853        3.354491
 O         2.558353       12.681833        1.103190
 O         2.598836        8.148768        1.115729
 O         6.511021        8.180290        3.358195
 O         6.518408        8.191002        7.805133
 O         6.510128       12.716095        7.798753
 O         1.327845        9.032784        7.815623
 O         1.318550        1.773740        3.364131
 O         4.879472        4.431977        1.459159
 O         6.589077        5.433662        3.462819
 O         5.184650        4.499861        5.627157
 O         2.610806        0.842584        5.586925
 O         2.602422        5.374985        5.589454
 O         5.196399        1.638957        1.080125
 O         5.208877        1.738533        5.568571
 O         1.287044        4.472435        7.808997
 O         1.266885        4.502182        3.371110
 O         2.475114        5.441741        1.143871
 O         2.585535        0.816311        1.110869
 O         6.521124        0.830293        3.349711
 O         6.509596        0.845279        7.810971
 O         6.506248        5.447406        7.801170
 O         1.284536        1.739350        7.828532
 O         9.076090        1.758038        3.205215
 O        13.049688        4.520616        1.113851
 O        14.230785        5.471066        3.395097
 O        12.963691        4.496008        5.603492
 O        10.346105        0.903646        5.538375
 O        10.386827        5.418998        5.626855
 O        12.988739        1.739094        1.059795
 O        12.968701        1.748805        5.571140
 O         9.058449        4.511016        7.843346
 O         9.101406        4.477714        3.392828
 O        10.514909        5.526260        1.264057
 O        10.283421        0.836668        0.996294
 O        14.255333        0.842190        3.339591
 O        14.230099        0.831114        7.823838
 O        14.241884        5.419164        7.832814
 O         9.093377        1.785374        7.823308
 O         1.284948        1.754341       12.271605
 O         5.191159        4.478071        9.989234
 O         6.462660        5.415998       12.194338
 O         5.075800        4.471296       14.382658
 O         2.561419        0.838985       14.520755
 O         2.503613        5.409310       14.525876
 O         5.192615        1.748225       10.023936
 O         5.140246        1.750400       14.484636
 O         1.276802        4.478411       16.779793
 O         1.299255        4.489295       12.239283
 O         2.618695        5.395668       10.018811
 O         2.606059        0.830096       10.048723
 O         6.479126        0.863357       12.279911
 O         6.414907        0.868927       16.795124
 O         1.305504        1.714750       16.797155
 O         9.080501        9.064331       12.337538
 O        12.987451       11.769322       10.077900
 O        14.242026       12.699021       12.334846
 O        12.940821       11.777402       14.578029
 O        10.397268        8.144770       14.566830
 O        10.405482       12.753099       14.631682
 O        12.959820        9.041097       10.075510
 O        12.992074        9.044391       14.571232
 O         9.067225       11.838685       16.823614
 O         9.092589       11.835514       12.331135
 O        10.415317       12.707870       10.082638
 O        10.380136        8.148696       10.099906
 O        14.272410        8.154198       12.307676
 O        14.271836        8.142291       16.820330
 O        14.237636       12.727164       16.786745
 O         9.132911        9.133453       16.817299
 O         1.308113        9.070331       12.269848
 O         5.195962       11.815660       10.028541
 O         6.504331       12.725608       12.253608
 O         5.180582       11.840089       14.500919
 O         2.578169        8.167162       14.534090
 O         2.581584       12.706658       14.532293
 O         5.192244        9.064969       10.027537
 O         5.169572        9.127260       14.491198
 O         1.297170       11.794188       16.774771
 O         1.304462       11.805799       12.276871
 O         2.594528       12.695516       10.022377
 O         2.616973        8.134459       10.057417
 O         6.495741        8.171086       12.271047
 O         6.520224        8.320321       16.776871
 O         6.460906       12.701508       16.759808
 O         1.311238        9.046833       16.791065
 H         9.589146        1.363021       13.105209
 H         9.594729        1.382950       11.562654
 H        12.035547        4.825866       10.027185
 H        13.376306        4.843249        9.251487
 H        13.789522        5.131750       11.454186
 H        14.258066        6.389316       12.234180
 H        13.527802        4.826920       13.703330
 H        13.517394        4.826307       15.257014
 H        11.405643        1.106000       14.635395
 H        10.492851       14.419488       14.707648
 H        11.422943        5.167482       14.438330
 H        10.447520        6.376225       14.537809
 H        12.982087        2.725159       10.042080
 H        13.423310        1.458377        9.269923
 H        13.428570        1.446928       13.708239
 H        13.001064        2.724350       14.469691
 H        10.011880        4.722029       15.946999
 H         9.612785        2.725397       16.762562
 H         9.090942        3.513852       12.348803
 H         9.531539        4.790225       13.089450
 H         9.893229        5.061012       10.845064
 H         9.873270        5.090443        9.299992
 H        10.423645       14.487635       10.076116
 H        11.309671        1.151576       10.080108
 H        13.821055        1.173186       11.506193
 H        15.159049        1.167400       12.278988
 H        13.860344        1.203335       15.962998
 H        15.184215        1.177253       16.766932
 H        15.181664        5.091043       16.777470
 H        14.289519        6.357255       16.792454
 H         9.912373        1.316302       15.948870
 H         9.798294        1.357047       17.664782
 H         9.554106        8.826308        4.189903
 H         9.109017       10.098786        3.426040
 H        12.040723       12.223251        1.137028
 H        13.384158       12.203833        1.909903
 H        15.155452       12.364771        3.366948
 H        13.819300       12.395931        4.147299
 H        13.390663       12.146671        6.387829
 H        12.054471       12.171015        5.609579
 H        11.326338        8.459816        5.602254
 H        10.418327        7.207155        5.615093
 H        10.352490       13.729411        5.611333
 H         9.923410       12.463415        6.394457
 H        12.965609       10.110465        1.088437
 H        12.074492        8.855593        1.125374
 H        13.453732        8.801770        4.786666
 H        12.982949       10.050087        5.565597
 H         9.122856       10.873096        7.850072
 H         9.567782       12.125390        8.634199
 H         9.514511       12.214788        4.154918
 H         8.168036       12.175671        3.386244
 H         9.849731       12.416778        0.344945
 H         9.861021       12.450051        1.897128
 H        10.423159        7.311200        1.220549
 H         9.939988        8.573468        1.957170
 H        13.857103        8.556664        2.548977
 H        15.198681        8.505907        3.321753
 H        13.804409        8.503210        7.053712
 H        13.781947        8.478870        8.600933
 H        13.835582       12.358184        8.633377
 H        15.159102       12.363302        7.831903
 H         9.595579        8.759788        7.077916
 H         9.564090        8.756270        8.622471
 H         1.814280        8.701067        4.120728
 H         1.809852        8.719347        2.570776
 H         4.261647       12.147912        1.083947
 H         5.594005       12.135971        0.301771
 H         6.010238       12.384508        2.577142
 H         6.011740       12.355218        4.125267
 H         5.201329       10.823097        5.605525
 H         5.665181       12.088024        6.369930
 H         2.174485        8.412575        6.375146
 H         2.618223        7.147623        5.608196
 H         3.532083       12.408416        5.566957
 H         2.630881       13.666124        5.564502
 H         4.284832        8.742872        1.121829
 H         5.146825       10.025633        1.132073
 H         5.643640        8.745938        4.778137
 H         4.310436        8.711798        5.567488
 H         1.765449       12.077046        6.998674
 H         1.326719       10.806702        7.767169
 H         1.315186       10.805464        3.378893
 H         1.757084       12.084168        4.128111
 H         2.097092       12.357186        0.322859
 H         2.094506       12.335052        1.872294
 H         2.567021        7.182882        1.098781
 H         2.157873        8.448439        0.315304
 H         7.407490        8.526632        3.340356
 H         6.072793        8.486481        2.555804
 H         7.422673        8.519985        7.792165
 H         6.084844        8.516171        7.008246
 H         7.426299       12.420629        7.820169
 H         6.531336       13.679398        7.796923
 H         0.420188        8.713464        7.844962
 H         1.765120        8.709064        8.611027
 H         1.291325        2.738196        3.358044
 H         0.405543        1.473258        3.359810
 H         5.520519        4.758820        2.086337
 H         5.066184        3.510938        1.299032
 H         6.094686        5.150959        4.237693
 H         6.546881        6.393982        3.432989
 H         5.176698        3.538379        5.599904
 H         4.264029        4.784373        5.602874
 H         2.149232        1.187226        4.814251
 H         2.135317        1.166531        6.358564
 H         2.123061        5.042017        6.355563
 H         2.131446        5.059395        4.809638
 H         5.626108        1.331130        1.883381
 H         4.281525        1.341016        1.117793
 H         5.642305        1.413845        6.364594
 H         4.302331        1.414797        5.592519
 H         0.376630        4.784487        7.823398
 H         1.255237        3.509724        7.822606
 H         0.372569        4.854940        3.381555
 H         1.681251        4.841118        2.565320
 H         2.098787        5.100467        0.329344
 H         3.373713        5.077707        1.213501
 H         2.140923        1.141288        1.900301
 H         2.550512       14.456560        1.143034
 H         6.499526       14.469804        3.383724
 H         6.054917        1.143858        4.133232
 H         7.408048        1.189688        7.833999
 H         6.067019        1.172093        8.602696
 H         6.030758        5.139791        7.020392
 H         6.495184        6.410021        7.780553
 H         0.383795        1.400799        7.851200
 H         1.728378        1.411897        8.618287
 H         8.159766        1.456079        3.255118
 H         9.055659        2.722382        3.255493
 H        13.045982        3.560601        1.093282
 H        13.488309        4.814189        0.305773
 H        14.233915        6.434020        3.362952
 H        13.822250        5.166115        2.579930
 H        12.991318        3.534206        5.574641
 H        13.413546        4.816143        4.813559
 H         9.883377        1.245000        6.311251
 H         9.877487        1.215659        4.760048
 H         9.947886        5.075773        4.841269
 H        11.286658        5.075880        5.610008
 H        13.428521        1.419822        0.261810
 H        12.094440        1.403381        1.038639
 H        13.402950        1.415401        4.778380
 H        12.056276        1.445845        5.536735
 H         8.156517        4.851524        7.807683
 H         9.511394        4.843499        7.060909
 H         8.201432        4.835248        3.399160
 H         9.550696        4.866298        2.639007
 H        11.421769        5.198015        1.259411
 H        10.142220        5.202083        0.453411
 H        10.274097       14.466229        1.057660
 H         9.829730        1.178190        1.787419
 H        13.818962        1.128199        2.533158
 H        14.262511       14.480312        3.326330
 H        14.225080       14.469867        7.809467
 H        13.782511        1.125425        7.023669
 H        13.789378        5.118667        7.037207
 H        14.240103        6.382380        7.808672
 H         9.090251        2.749151        7.857515
 H         9.554122        1.479599        8.609843
 H         1.301698        2.718015       12.242989
 H         1.754025        1.445608       11.488956
 H         5.660385        4.827244        9.223637
 H         5.655298        4.814063       10.765828
 H         7.360064        5.083216       12.275518
 H         5.984979        5.098471       12.968178
 H         4.179181        4.821605       14.462471
 H         5.569116        4.863964       15.109147
 H         2.119988        1.170390       13.731497
 H         3.463892        1.175022       14.488091
 H         2.066829        5.126577       13.716407
 H         2.527118        6.371413       14.514725
 H         5.648497        1.467750       10.823936
 H         5.197450        2.712724       10.026960
 H         5.127132        2.716374       14.488029
 H         5.561738        1.481092       15.303678
 H         1.313781        3.518047       16.771849
 H         1.735038        4.782096       15.987974
 H         1.755724        4.818435       11.457253
 H         0.399254        4.829020       12.199960
 H         2.175066        5.064896        9.230852
 H         3.521915        5.059882        9.992217
 H         2.628156       14.469255       10.039537
 H         3.520753        1.131397       10.040519
 H         7.384484        1.179161       12.324339
 H         6.028832        1.189539       13.067986
 H         7.265766        1.283528       16.794146
 H         5.969630        1.169784       17.606560
 H         1.776814        1.393224       16.021154
 H         1.778380        1.393073       17.572449
 H         9.060404       10.025288       12.338889
 H         8.162582        8.767431       12.324105
 H        13.436089       12.066082       10.876205
 H        12.990791       10.805330       10.095280
 H        13.783837       12.401527       13.127021
 H        14.227663       13.661401       12.342954
 H        13.408186       12.079036       15.365016
 H        12.973284       10.813471       14.587685
 H         9.913720        8.470801       13.799662
 H         9.932576        8.475370       15.342808
 H        11.291325       12.367370       14.626565
 H         9.948381       12.398522       15.404590
 H        12.054387        8.711918       10.107643
 H        13.403396        8.714233       10.865624
 H        13.422330        8.710407       15.366308
 H        12.085559        8.719069       14.585567
 H         8.142763       12.110278       16.794350
 H         9.072062       10.871633       16.821262
 H         9.503099       12.167336       13.131866
 H         8.185853       12.163323       12.321404
 H         9.976197       12.387785       10.877266
 H        11.314085       12.360789       10.099900
 H        10.351231        7.186133       10.113533
 H         9.914294        8.452395       10.886574
 H        15.177096        8.488101       12.312904
 H        13.849630        8.473235       13.111426
 H        13.844339        8.497499       17.605906
 H        15.179674        8.468770       16.826227
 H        13.788157       12.455227       17.594093
 H        14.247463       13.689323       16.789608
 H         8.222430        8.814175       16.828150
 H         9.548213        8.807178       17.621565
 H         1.774985        8.758132       11.486973
 H         1.323108       10.032662       12.242680
 H         4.286618       12.130801       10.002626
 H         5.631695       12.145684        9.235623
 H         6.043836       12.420523       11.463941
 H         6.475079       13.687777       12.236153
 H         5.642988       12.133756       13.709795
 H         5.186760       10.874337       14.477840
 H         3.488460        8.480173       14.512847
 H         2.154606        8.501919       13.737591
 H         2.599309       13.669912       14.525774
 H         3.499924       12.414493       14.518657
 H         5.199609       10.027240       10.013660
 H         5.660830        8.775577        9.237105
 H         5.637280        8.830939       15.278138
 H         5.646080        8.760155       13.739161
 H         0.394953       12.125211       16.747978
 H         1.739928       12.126268       15.985935
 H         0.398372       12.127053       12.317749
 H         1.746172       12.126379       13.070981
 H         2.127061       12.374552       10.800583
 H         2.124120       12.358598        9.252531
 H         2.644222        7.171431       10.051512
 H         3.531205        8.438486       10.046488
 H         6.478849        7.208594       12.257077
 H         6.037283        8.464332       11.477037
 H         6.496408        7.365156       16.677774
 H         6.039285        8.519156       17.589334
 H         6.008841       12.405021       15.960844
 H         6.438894       13.661368       16.747456
 H         1.765559        8.746315       15.995466
 H         1.322387       10.008615       16.764620
