381
 generated by VMD
 O         9.083879        1.823741       12.363882
 O        12.964263        4.527722       10.096165
 O        14.278904        5.349638       12.350483
 O        12.959869        4.481392       14.595563
 O        10.403590        0.862558       14.573879
 O        10.391080        5.408478       14.606349
 O        12.991521        1.790957       10.113209
 O        12.989423        1.747876       14.572252
 O         9.061769        4.485318       16.829929
 O         9.079871        4.533895       12.379069
 O        10.348937        5.329761       10.084617
 O        10.292631        1.035836       10.068408
 O        14.294918        0.864378       12.337481
 O        14.257356        0.847038       16.824120
 O        14.272711        5.393499       16.818277
 O         9.090892        1.742514       16.805756
 O         9.085099        9.100764        3.341683
 O        12.958435       11.815846        1.095437
 O        14.238905       12.729704        3.309113
 O        12.868793       11.799715        5.481519
 O        10.348192        8.123895        5.557813
 O        10.130992       12.828174        5.664485
 O        12.942756        9.076006        1.073233
 O        12.945555        9.064891        5.534973
 O         8.987009       12.140193        7.727695
 O         9.077809       11.879448        3.412032
 O        10.386808       12.696613        1.177312
 O        10.376301        8.150576        1.100180
 O        14.238783        8.159219        3.313921
 O        14.286621        8.112028        7.758677
 O        14.663083       12.845234        7.420131
 O         9.094390        9.019694        7.865030
 O         1.292316        9.050346        3.305665
 O         5.160040       11.781123        1.098197
 O         6.491742       12.704654        3.269447
 O         5.257225       11.756758        5.527731
 O         2.638968        8.138121        5.516397
 O         2.650307       12.694725        5.530520
 O         5.189141        9.045296        1.068812
 O         5.202760        9.047441        5.519457
 O         1.494309       11.766183        7.788018
 O         1.284184       11.796129        3.332548
 O         2.586841       12.718444        1.095639
 O         2.621699        8.116317        1.094634
 O         6.501563        8.148097        3.289600
 O         6.459827        8.157379        7.770158
 O         6.587512       12.757861        7.829488
 O         1.353747        9.007368        7.809076
 O         1.327184        1.759534        3.317096
 O         5.217277        4.490350        1.102715
 O         6.515002        5.398163        3.340256
 O         5.210287        4.473305        5.574331
 O         2.610023        0.828746        5.555338
 O         2.617947        5.406378        5.581447
 O         5.188083        1.759032        1.057043
 O         5.178123        1.721801        5.565073
 O         1.331606        4.526589        7.826822
 O         1.316434        4.497463        3.343390
 O         2.624357        5.379264        1.105828
 O         2.600761        0.861335        1.064904
 O         6.465580        0.852650        3.298518
 O         6.442028        0.823651        7.799132
 O         6.461423        5.419940        7.819297
 O         1.366232        1.798907        7.825718
 O         9.053568        1.779786        3.341827
 O        12.984149        4.494233        1.126025
 O        14.271094        5.425717        3.354717
 O        12.974577        4.504242        5.591270
 O        10.305941        0.872297        5.570675
 O        10.400535        5.399207        5.562942
 O        12.959424        1.755176        1.125208
 O        12.967729        1.763754        5.573766
 O         9.056067        4.556055        7.809572
 O         9.101384        4.507301        3.323676
 O        10.391157        5.416812        1.094859
 O        10.392295        0.835326        1.113222
 O        14.278900        0.863629        3.343132
 O        14.265429        0.990901        7.802688
 O        14.263824        5.387508        7.827486
 O         9.018314        1.856458        7.775784
 O         1.369436        1.735516       12.293799
 O         5.197195        4.493402       10.072071
 O         6.483896        5.405451       12.318729
 O         5.201759        4.493298       14.559367
 O         2.634441        0.837212       14.568454
 O         2.617486        5.409808       14.554908
 O         5.247380        1.760196       10.053570
 O         5.202158        1.758704       14.554989
 O         1.327035        4.508218       16.796679
 O         1.350116        4.469853       12.319542
 O         2.631676        5.427225       10.070623
 O         2.650577        0.825390       10.047521
 O         6.507087        0.875531       12.318503
 O         6.506448        0.841838       16.784296
 O         6.472923        5.420796       16.802706
 O         1.299965        1.770484       16.777706
 O         9.062978        8.984426       12.362591
 O        14.338252       12.718236       12.450516
 O        12.982154       11.794334       14.671891
 O        10.398848        8.145825       14.592909
 O        10.373522       12.721343       14.665030
 O        12.973455        8.862627       10.047862
 O        12.974853        9.048994       14.576679
 O         9.058043       11.777888       16.891850
 O         9.084237       11.746772       12.414676
 O         9.878950       13.049044        9.917603
 O        10.267705        8.056919       10.056382
 O        14.305728        8.088723       12.359982
 O        14.283583        8.147169       16.815300
 O        14.293322       12.724963       16.845686
 O         9.076100        9.046161       16.801828
 O         1.336594        9.061396       12.320588
 O         5.356093       11.801270        9.992240
 O         6.513309       12.721602       12.301461
 O         5.249340       11.806734       14.546916
 O         2.624566        8.151463       14.549876
 O         2.652800       12.705396       14.570299
 O         5.206830        9.081699       10.036443
 O         5.194956        9.070536       14.537565
 O         1.333694       11.795476       16.790434
 O         1.406502       11.816161       12.319922
 O         2.689856       12.699010       10.023794
 O         2.633782        8.173607       10.078274
 O         6.469754        8.138736       12.297235
 O         6.481598        8.163829       16.770842
 O         6.496744       12.701648       16.818857
 O         1.340651        9.051182       16.796215
 H         9.087491        2.787073       12.418067
 H         9.557464        1.496857       13.137065
 H        12.994402        3.565127       10.114798
 H        13.425940        4.823227       10.888917
 H        15.182240        5.018292       12.366054
 H        13.842683        5.030834       13.147151
 H        13.425683        4.782907       15.383043
 H        12.980274        3.518106       14.611405
 H        10.412808       14.501633       14.593001
 H        11.324452        1.147823       14.566533
 H        11.292456        5.066237       14.618645
 H         9.953298        5.074450       15.395688
 H        12.084301        1.484526       10.128843
 H        13.424804        1.432772       10.896481
 H        13.471419        1.432567       13.799169
 H        13.452324        1.411389       15.347069
 H         9.040329        3.522623       16.826015
 H         8.148126        4.788212       16.816961
 H         8.174903        4.863762       12.384809
 H         9.515943        4.872745       13.169230
 H        11.268813        5.040883       10.109573
 H         9.934102        5.022985       10.897593
 H         9.857579        1.365236       10.865725
 H         9.836969        1.407245        9.306407
 H        14.312074       14.503223       12.351161
 H        15.212987        1.153308       12.315915
 H        14.262017       14.485163       16.848022
 H        13.796129        1.143503       17.615105
 H        13.846306        5.067797       17.617434
 H        15.179923        5.070283       16.831854
 H         9.563391        1.414201       17.577267
 H         9.572643        1.430980       16.031063
 H         9.103442       10.059833        3.387580
 H         9.528535        8.773170        4.132001
 H        13.437756       12.143753        0.325177
 H        13.433194       12.142197        1.868628
 H        15.148353       12.413041        3.343377
 H        14.282250       13.691952        3.325841
 H        13.303549       12.148733        4.695234
 H        11.993049       12.171116        5.515164
 H         9.919975        8.393060        6.373330
 H        10.364674        7.159431        5.561679
 H         9.736732       12.497705        4.837251
 H        10.197049       13.797741        5.593477
 H        12.963330       10.038898        1.053597
 H        13.416294        8.770806        0.291212
 H        12.037267        8.751415        5.549068
 H        12.904601       10.026909        5.537991
 H         7.994629       12.392969        7.747752
 H         9.460806       12.441957        6.855916
 H         8.161885       12.168710        3.313547
 H         9.549438       12.176912        2.622343
 H        10.410542       13.659241        1.143896
 H        11.304296       12.398475        1.143597
 H        11.279302        8.488946        1.104283
 H         9.946432        8.493923        1.888896
 H        13.768079        8.496255        4.084786
 H        13.770372        8.485153        2.538142
 H        13.820543        8.423387        8.542930
 H        13.811962        8.468541        7.002511
 H        13.996598       12.490788        6.839274
 H        14.452015       13.760950        7.588178
 H         9.522405        8.673100        8.666687
 H         9.181325        9.961845        7.908784
 H         1.273874       10.013328        3.315069
 H         0.374332        8.758221        3.308144
 H         4.246755       12.089444        1.091691
 H         5.133854       10.817986        1.083194
 H         6.035817       12.366860        4.046291
 H         6.012055       12.365238        2.502947
 H         5.692381       12.050602        6.325487
 H         5.243734       10.791160        5.547574
 H         2.156520        8.435453        4.737566
 H         2.619599        7.175090        5.510288
 H         3.553790       12.372215        5.525200
 H         2.245081       12.342720        6.335705
 H         5.617949        8.728894        0.265878
 H         4.290183        8.697222        1.063712
 H         4.294481        8.719676        5.501699
 H         5.634785        8.716845        4.723610
 H         0.598210       12.131441        7.699107
 H         1.403394       10.809886        7.812183
 H         1.767541       12.114894        4.102650
 H         1.746699       12.132316        2.557916
 H         2.580018       13.681105        1.067294
 H         2.139147       12.414886        0.297859
 H         2.150375        8.427917        1.874871
 H         2.606286        7.153673        1.124766
 H         6.064160        8.468762        2.492351
 H         7.397878        8.497639        3.278704
 H         7.366351        8.472969        7.767705
 H         6.041489        8.479915        6.963767
 H         6.479373       13.724958        7.829648
 H         6.136878       12.411384        8.621231
 H         0.442215        8.697915        7.779682
 H         1.779920        8.690138        7.008276
 H         1.777512        1.467001        2.517208
 H         1.336707        2.722489        3.306448
 H         5.668635        4.839418        0.325997
 H         5.694727        4.816362        1.872643
 H         6.527555        6.360723        3.326844
 H         7.434682        5.111371        3.335953
 H         5.667741        4.774886        4.782332
 H         5.209460        3.511226        5.547785
 H         2.146960        1.131987        4.767238
 H         2.592405       14.467451        5.536415
 H         2.182010        5.093428        6.382500
 H         3.518245        5.068093        5.600736
 H         5.658753        1.462366        0.270470
 H         5.210011        2.722399        1.049652
 H         4.267439        1.402207        5.535064
 H         5.608998        1.401161        4.765605
 H         1.326729        3.562978        7.828709
 H         0.410311        4.808860        7.830580
 H         0.414404        4.835266        3.361688
 H         1.750987        4.822089        4.139029
 H         3.529482        5.051898        1.132966
 H         2.181834        5.049868        1.895332
 H         3.506871        1.185839        1.034564
 H         2.160152        1.193444        0.274844
 H         6.462930       14.492929        3.263702
 H         6.009533        1.156831        2.505168
 H         5.965834        1.150251        7.024765
 H         5.994992        1.174352        8.580648
 H         6.435647        6.381477        7.783280
 H         6.020477        5.100513        7.024304
 H         1.804964        1.442406        7.047462
 H         1.824786        1.440632        8.592814
 H         8.137467        1.483855        3.316662
 H         9.040800        2.743762        3.325595
 H        13.412564        4.834154        1.919154
 H        12.082030        4.829873        1.130530
 H        13.815584        5.128919        4.149621
 H        14.248641        6.389149        3.360850
 H        13.431964        4.788598        6.391588
 H        12.986462        3.541250        5.592070
 H         9.851552        1.252033        6.331275
 H         9.861766        1.218525        4.785385
 H        11.307435        5.072572        5.602367
 H         9.954759        5.088484        6.357230
 H        12.979045        2.718188        1.138735
 H        13.430698        1.460077        1.912403
 H        13.405107        1.467022        6.383661
 H        12.068496        1.432736        5.597991
 H         9.490064        4.838789        8.623126
 H         8.154208        4.894622        7.834055
 H         9.580256        4.824532        4.096784
 H         9.570642        4.836167        2.548189
 H        10.374639        6.379608        1.070771
 H         9.923378        5.108996        0.311046
 H        11.294827        1.174428        1.138652
 H         9.945976        1.177472        1.893082
 H        13.851155        1.184255        4.143854
 H        15.185102        1.190971        3.355697
 H        13.847047        1.253539        8.627032
 H        15.176907        1.294734        7.838092
 H        14.258423        6.352247        7.815257
 H        13.807246        5.117461        8.631067
 H         8.992824        2.822384        7.767553
 H         8.107650        1.548953        7.782539
 H         1.832488        1.404993       13.070152
 H         1.832718        1.392751       11.522350
 H         4.292299        4.827234       10.059759
 H         5.623164        4.830633        9.277422
 H         6.035764        5.098773       11.523461
 H         6.457300        6.368360       12.293447
 H         5.213205        3.530117       14.544477
 H         5.656966        4.790282       13.764332
 H         2.623397       14.476027       14.593968
 H         2.152857        1.144001       15.343824
 H         3.521539        5.078551       14.536430
 H         2.184298        5.066163       13.765554
 H         5.231390        2.723863       10.077918
 H         5.696979        1.471406       10.855485
 H         4.296619        1.428067       14.580361
 H         5.642443        1.423431       15.343132
 H         1.802931        4.826737       17.570625
 H         1.791865        4.842618       16.021832
 H         1.375714        3.507325       12.283780
 H         1.791874        4.789931       11.526707
 H         2.162851        5.139565        9.279899
 H         2.618438        6.390612       10.065300
 H         2.674456       14.463442       10.032549
 H         3.563542        1.126356       10.051971
 H         6.053860        1.193102       13.107953
 H         7.407053        1.214981       12.364023
 H         6.523063       14.480879       16.795795
 H         7.424596        1.133614       16.787872
 H         6.021236        5.114699       16.008610
 H         6.467631        6.383443       16.770229
 H         0.383469        1.474021       16.793461
 H         1.284176        2.733463       16.775438
 H         9.099114        9.943810       12.383071
 H         9.542364        8.685758       13.144352
 H        13.867244       12.393275       13.227341
 H        13.887033       12.306435       11.708518
 H        12.956044       10.832943       14.614461
 H        12.070034       12.096556       14.649000
 H        11.313543        8.452379       14.574189
 H        10.429827        7.183496       14.602002
 H         9.920547       12.364931       13.897440
 H         9.904625       12.391511       15.438004
 H        12.042391        8.623285       10.061032
 H        12.988087        9.818376       10.166561
 H        13.443616        8.730990       13.797446
 H        13.455587        8.719647       15.342493
 H         9.084922       10.814579       16.882235
 H         9.528345       12.066920       17.679949
 H         9.555449       12.064123       11.655854
 H         8.191791       12.107335       12.354293
 H         9.410451       12.511478        8.540243
 H        10.074493       14.006273        9.982560
 H        10.281525        7.094071       10.092672
 H         9.864210        8.364615       10.874409
 H        13.833699        8.357298       11.566247
 H        14.301634        7.126203       12.356174
 H        14.302202        7.184869       16.819231
 H        15.200198        8.442713       16.811224
 H        13.840542       12.381508       16.064949
 H        15.195787       12.390667       16.809502
 H         9.560581        8.728210       16.030678
 H         9.540325        8.710435       17.575523
 H         1.317468       10.023926       12.315125
 H         0.420148        8.761847       12.320935
 H         5.754869       12.095200       10.819390
 H         5.309781       10.837544       10.027445
 H         6.058340       12.416236       13.095353
 H         6.497174       13.684114       12.328491
 H         5.696780       12.096647       15.349002
 H         5.241653       10.843457       14.564221
 H         2.608073        7.188942       14.523737
 H         2.160077        8.459363       13.762432
 H         3.559955       12.384718       14.551793
 H         2.231579       12.388398       13.762226
 H         4.294674        8.765549       10.045291
 H         5.613776        8.731508        9.238461
 H         4.288650        8.741252       14.528272
 H         5.619096        8.733761       13.741389
 H         1.799358       12.088813       15.999524
 H         1.345570       10.832473       16.777023
 H         0.500205       12.141494       12.331829
 H         1.809760       12.133681       11.506921
 H         2.254109       12.354769        9.231509
 H         3.591523       12.376143        9.999784
 H         2.154597        8.500456       10.848407
 H         2.157533        8.484536        9.300036
 H         7.382426        8.449843       12.304050
 H         6.059963        8.478907       11.496104
 H         6.053186        8.498329       15.975128
 H         7.389340        8.486017       16.758575
 H         7.398352       12.363880       16.867651
 H         6.037715       12.374684       17.598862
 H         1.803877        8.722721       16.017891
 H         1.810758        8.713455       17.565157
