381
 generated by VMD
 O         8.991547        1.793870       12.504617
 O        12.964373        4.537505       10.035120
 O        14.308892        5.409153       12.251860
 O        12.980172        4.545262       14.522623
 O         9.934196        0.770090       14.547438
 O        10.343104        5.381825       14.537992
 O        12.952503        1.809810       10.057932
 O        13.141400        1.766625       14.502836
 O         9.098173        4.457264       16.825451
 O         9.027683        4.444149       12.296771
 O        10.343151        5.344716       10.079689
 O        10.398875        0.887978       10.112705
 O        14.391874        0.981807       12.218148
 O        14.386787        0.977850       16.892601
 O        14.290910        5.401974       16.801966
 O         9.046493        1.618185       16.711086
 O         9.121857        9.049035        3.355361
 O        12.976466       11.793374        1.117113
 O        14.249968       12.731107        3.336587
 O        12.958531       11.824245        5.569454
 O        10.425827        8.141890        5.582889
 O        10.370273       12.737487        5.569291
 O        12.970392        9.064339        1.148939
 O        12.994550        9.081924        5.596748
 O         9.110000       11.800138        7.815852
 O         9.080939       11.793209        3.338823
 O        10.411088       12.706656        1.128384
 O        10.391477        8.090129        1.128829
 O        14.282226        8.148851        3.375862
 O        14.284528        8.171580        7.809488
 O        14.279415       12.707524        7.789827
 O         9.095212        9.054668        7.797375
 O         1.333742        9.056209        3.356885
 O         5.153645       11.791941        1.151711
 O         6.505831       12.717904        3.347025
 O         5.207941       11.817506        5.584177
 O         2.625862        8.133555        5.598359
 O         2.610137       12.713457        5.592955
 O         5.225121        9.058703        1.120526
 O         5.208926        9.074581        5.570074
 O         1.329905       11.796914        7.833591
 O         1.291275       11.797224        3.367554
 O         2.597689       12.708250        1.132870
 O         2.642255        8.153481        1.125822
 O         6.535859        8.152682        3.347095
 O         6.508477        8.171903        7.804743
 O         6.519814       12.706271        7.820178
 O         1.343010        9.057457        7.831194
 O         1.311055        1.755459        3.315666
 O         5.215006        4.506947        1.107494
 O         6.518060        5.402705        3.348132
 O         5.201587        4.495626        5.585582
 O         2.600369        0.857404        5.552992
 O         2.624998        5.395160        5.600704
 O         5.205983        1.764656        1.129000
 O         5.190423        1.755487        5.584990
 O         1.308299        4.509525        7.824358
 O         1.353530        4.492890        3.345688
 O         2.643900        5.415236        1.110700
 O         2.647955        0.843848        1.113271
 O         6.488055        0.841010        3.355934
 O         6.503112        0.837905        7.809896
 O         6.504807        5.438109        7.819469
 O         1.327810        1.774859        7.806726
 O         9.064446        1.743081        3.287347
 O        12.994245        4.524758        1.102267
 O        14.306571        5.417513        3.315430
 O        12.993391        4.484414        5.531777
 O        10.372829        0.880665        5.556928
 O        10.417536        5.392864        5.574319
 O        12.898065        1.802788        1.107444
 O        12.985944        1.742793        5.572374
 O         9.094418        4.496979        7.795323
 O         9.099807        4.483729        3.343158
 O        10.396000        5.345703        1.091709
 O        10.341478        0.835467        0.976640
 O        14.247720        0.861602        3.306334
 O        14.262018        0.855367        7.832040
 O        14.258039        5.437450        7.787545
 O         9.077971        1.753783        7.821433
 O         1.445739        1.815917       12.279506
 O         5.191875        4.512916       10.033301
 O         6.484708        5.391108       12.283629
 O         5.219533        4.484958       14.560972
 O         2.639403        0.858465       14.547344
 O         2.620771        5.419564       14.573443
 O         5.254138        1.784437       10.056464
 O         5.201990        1.756673       14.574112
 O         1.350536        4.527075       16.826994
 O         1.359587        4.542037       12.300617
 O         2.609238        5.423839       10.043947
 O         2.657736        0.882743       10.021513
 O         6.483602        0.906869       12.315300
 O         6.482499        0.897966       16.842171
 O         6.506205        5.383228       16.807014
 O         1.431329        1.795382       16.822876
 O         9.029026        9.047147       12.248545
 O        12.975959       11.784718       10.021590
 O        14.357027       12.838752       12.169979
 O        10.266044        8.149176       14.564547
 O         9.543803       12.848631       14.441962
 O        12.975590        9.043308       10.039451
 O        13.048656        8.566160       14.430522
 O         8.975358       11.720674       16.933901
 O         8.975839       11.748099       12.132408
 O        10.421401       12.711797       10.035997
 O        10.350816        8.101908       10.058633
 O        14.326345        8.108104       12.186737
 O        14.308825        8.102505       16.883120
 O        14.348748       12.811562       16.897631
 O         9.077656        8.972582       16.853083
 O         1.373351        9.101620       12.293818
 O         5.147514       11.802040       10.014556
 O         6.414323       12.738676       12.274410
 O         5.217262       11.793009       14.588454
 O         2.614249        8.164861       14.566351
 O         2.623126       12.729807       14.590547
 O         5.200603        9.063781       10.039739
 O         5.217523        9.041953       14.561800
 O         1.364234       11.804746       16.836613
 O         1.378399       11.852015       12.304317
 O         2.601759       12.745419       10.054337
 O         2.615402        8.155219       10.072454
 O         6.444829        8.117167       12.284321
 O         6.490439        8.127820       16.816374
 O         6.438815       12.720280       16.898588
 O         1.348323        9.081594       16.825075
 H         9.008185        2.764708       12.430266
 H         8.067253        1.511925       12.395276
 H        13.428267        4.868545        9.258827
 H        13.447062        4.857739       10.806324
 H        13.842269        5.147811       13.051086
 H        14.322032        6.376332       12.241097
 H        12.964314        3.585746       14.515314
 H        12.064182        4.836709       14.522388
 H         9.570561        1.114985       15.436215
 H         9.536894        1.234749       13.722807
 H         9.864479        5.050196       13.773982
 H         9.889026        5.056857       15.319845
 H        12.966060        2.773791       10.052382
 H        13.464198        1.536559       10.829256
 H        13.625564        1.477593       13.715810
 H        12.388822        1.188839       14.540100
 H         9.572909        4.749997       17.614714
 H         9.111252        3.501805       16.832403
 H         8.133121        4.807408       12.264239
 H         9.486672        4.760089       11.508132
 H        11.262636        5.057047       10.051576
 H         9.928632        5.028243        9.269620
 H         9.983132        1.203513       10.911108
 H        11.304605        1.226641       10.120307
 H        14.395948       14.620850       12.194952
 H        15.315151        1.259336       12.224689
 H        13.959059        1.251100       16.078077
 H        13.845042        1.297339       17.621435
 H        13.832873        5.136926       15.999008
 H        14.295317        6.368270       16.814220
 H         9.524299        1.309144       17.500713
 H         8.112202        1.367957       16.813038
 H         9.582104        8.702116        2.582882
 H         9.598250        8.726039        4.127886
 H        12.990330       10.829585        1.091398
 H        13.439803       12.107596        0.333971
 H        15.151839       12.392769        3.334986
 H        13.822573       12.384766        2.544765
 H        13.391336       12.149435        4.772111
 H        12.054688       12.154887        5.550602
 H        11.340611        8.445189        5.589655
 H        10.448910        7.179403        5.582136
 H        10.352238       13.699600        5.542169
 H         9.908208       12.426723        4.783587
 H        13.405022        8.733409        1.941550
 H        12.074704        8.713607        1.153588
 H        13.456765        8.797050        6.393501
 H        12.987244       10.044919        5.605617
 H         9.561428       12.141623        7.036397
 H         9.594673       12.131479        8.579109
 H         9.110664       10.830207        3.329491
 H         9.565196       12.092084        2.561526
 H         9.961836       12.347441        0.359185
 H        11.317616       12.375249        1.100438
 H         9.937109        8.385452        0.332169
 H        10.385885        7.128353        1.103224
 H        15.184612        8.485476        3.380617
 H        13.853834        8.489085        4.168911
 H        15.192287        8.491938        7.844418
 H        13.842656        8.483711        8.607841
 H        14.263188       13.669766        7.792256
 H        13.814357       12.423412        6.995390
 H         9.122397       10.017165        7.788455
 H         9.569083        8.755754        7.013835
 H         1.802353        8.717817        4.126913
 H         1.803833        8.731968        2.580854
 H         5.145967       10.828433        1.139492
 H         4.233697       12.083482        1.159056
 H         7.406597       12.377316        3.315207
 H         6.048370       12.378672        2.569975
 H         5.675659       12.149647        4.810690
 H         5.687661       12.136053        6.355758
 H         2.191382        8.471445        6.389562
 H         3.526848        8.472157        5.610788
 H         2.180419       12.383446        6.389822
 H         3.516097       12.388836        5.609106
 H         5.684734        8.726049        0.342238
 H         5.706134        8.731758        1.888503
 H         5.215054       10.037371        5.547693
 H         5.670875        8.774290        4.780405
 H         0.422870       12.121435        7.833141
 H         1.747336       12.143642        8.629813
 H         1.756904       12.099000        4.154617
 H         1.316781       10.834517        3.384758
 H         2.113545       12.386703        1.900748
 H         2.140010       12.372216        0.351860
 H         3.558827        8.448073        1.128325
 H         2.660544        7.190630        1.119738
 H         7.454158        8.444436        3.356548
 H         6.550365        7.190157        3.352818
 H         7.413557        8.501886        7.778297
 H         6.071414        8.497896        7.010317
 H         6.062887       12.372523        8.599486
 H         7.421605       12.368915        7.849602
 H         1.350856       10.020534        7.853997
 H         1.790790        8.757750        8.630426
 H         1.752982        1.427987        2.524517
 H         0.403609        1.434236        3.284792
 H         4.300220        4.812891        1.105834
 H         5.182861        3.544747        1.120582
 H         6.039799        5.077981        4.118300
 H         6.043996        5.083914        2.572609
 H         5.641302        4.835136        6.371682
 H         4.296573        4.826951        5.611191
 H         2.139469        1.140934        4.755849
 H         2.591290       14.496361        5.552042
 H         2.611508        6.358580        5.612803
 H         2.156090        5.103822        6.390676
 H         5.640193        1.433596        1.923309
 H         4.302839        1.424639        1.146911
 H         4.272049        1.463855        5.573613
 H         5.175774        2.718925        5.589366
 H         1.738538        4.839938        8.621034
 H         0.404514        4.842142        7.834548
 H         1.805530        4.783267        4.144844
 H         1.351040        3.529807        3.357383
 H         2.163413        5.099288        0.336583
 H         2.175469        5.083098        1.883954
 H         2.616933       14.483031        1.093363
 H         2.220167        1.154764        0.306248
 H         6.480065       14.479455        3.379040
 H         6.032609        1.145995        4.148583
 H         6.035326        1.136235        7.022165
 H         6.493452       14.476492        7.793808
 H         7.417537        5.132584        7.809867
 H         6.532944        6.401414        7.812299
 H         1.331345        2.738000        7.787948
 H         1.768962        1.476645        7.004457
 H         9.482306        1.416523        2.486421
 H         8.159862        1.409989        3.289354
 H        13.480428        4.860660        1.863948
 H        13.457122        4.837989        0.316240
 H        15.223315        5.122435        3.327521
 H        14.320955        6.381009        3.342330
 H        13.461573        4.780653        4.743803
 H        13.012232        3.521674        5.527116
 H         9.907658        1.206084        4.780288
 H         9.898092        1.203541        6.329121
 H        11.321230        5.059338        5.540006
 H         9.973734        5.069146        4.783712
 H        12.939746        2.765632        1.135672
 H        13.365512        1.483730        1.887181
 H        12.077127        1.427394        5.591348
 H        13.414897        1.419215        6.371850
 H         9.092031        3.534724        7.775255
 H         9.566777        4.791017        7.008430
 H         8.188150        4.795883        3.344039
 H         9.060343        3.522060        3.329320
 H        11.314631        5.053653        1.123571
 H         9.967483        5.032070        1.895391
 H        10.401841       14.475937        1.029335
 H        11.246662        1.169261        1.016644
 H        14.242341       14.499894        3.320262
 H        13.807927        1.147557        4.113762
 H        13.825609        1.195956        8.619731
 H        15.165804        1.186561        7.848070
 H        13.812928        5.129749        6.991844
 H        14.250467        6.400570        7.762017
 H         8.176602        1.413239        7.838624
 H         9.513704        1.439156        8.617649
 H         1.885058        1.524023       11.473766
 H         1.437309        2.779390       12.267238
 H         4.284391        4.837526       10.011229
 H         5.633311        4.857901        9.249264
 H         6.457214        6.355147       12.269825
 H         6.015151        5.094763       11.495798
 H         5.672203        4.819371       13.780373
 H         5.693065        4.819171       15.330221
 H         2.201694        1.160446       13.743884
 H         2.611390       14.496961       14.542135
 H         3.521118        5.083242       14.591135
 H         2.186723        5.097722       15.371458
 H         5.246407        2.747684       10.016440
 H         5.702341        1.472495        9.262573
 H         5.177502        2.720571       14.572280
 H         4.284824        1.453471       14.569811
 H         0.428336        4.808022       16.810286
 H         1.351847        3.563586       16.821882
 H         1.774384        4.868026       13.105974
 H         0.445087        4.849000       12.310230
 H         2.171653        5.128905       10.850844
 H         2.601766        6.387527       10.068876
 H         2.214420        1.208220        9.230056
 H         3.563766        1.204429        9.991858
 H         5.986495        1.211336       13.084705
 H         6.024212        1.230291       11.529237
 H         6.011747        1.227240       17.619253
 H         6.001915        1.209825       16.066143
 H         7.409244        5.055299       16.844826
 H         6.061923        5.063249       17.600536
 H         0.516991        1.488431       16.837929
 H         1.825269        1.459183       16.010904
 H         8.130834        8.700596       12.233833
 H         9.481574        8.689229       11.476169
 H        13.440153       12.069281        9.227792
 H        12.988752       10.821307       10.026279
 H        13.839435       12.443686       11.458835
 H        13.888520       12.647060       12.985659
 H        10.272406        7.189729       14.521961
 H         9.846668        8.458654       13.757668
 H         9.377840       12.414982       13.579442
 H         9.831625       14.399140       14.481806
 H        12.077914        8.703572       10.072759
 H        13.431344        8.715137       10.826544
 H        13.438310        8.468135       15.297224
 H        12.101233        8.506041       14.522913
 H         9.306315       12.023572       16.097042
 H         8.070011       12.052392       16.972511
 H         9.009789       10.781551       12.145131
 H         9.509065       12.051231       11.387659
 H        10.449492       13.671329       10.069419
 H        11.337106       12.404060       10.045939
 H         9.914682        8.405870        9.256364
 H        10.336437        7.140180       10.039104
 H        15.209848        8.480969       12.240569
 H        13.873610        8.334188       13.016829
 H        15.193833        8.477511       16.871391
 H        13.857570        8.465850       17.649591
 H        13.900593       12.601209       16.073647
 H        14.367556       13.775276       16.912094
 H         9.513875        8.715324       16.030251
 H         9.062892        9.932467       16.874949
 H         1.797217        8.797750       13.102445
 H         1.369346       10.063838       12.325316
 H         4.240363       12.131714       10.015900
 H         5.553910       12.140195       10.817131
 H         7.312749       12.411659       12.177569
 H         6.459751       13.698691       12.272551
 H         5.665285       12.138470       13.811872
 H         5.670590       12.137170       15.363096
 H         2.628065        7.202449       14.560792
 H         3.532485        8.452068       14.566851
 H         3.520303       12.386252       14.610964
 H         2.180520       12.394479       15.378810
 H         5.664401        8.765354        9.249844
 H         5.192291       10.026143       10.009313
 H         5.225963       10.003315       14.591805
 H         5.673644        8.737267       15.353555
 H         1.321862       10.841547       16.822144
 H         0.456254       12.125863       16.830393
 H         1.782592       12.169890       13.118017
 H         0.472648       12.179371       12.298808
 H         2.167752       12.454716       10.866176
 H         2.604454       13.708125       10.066025
 H         3.522682        8.476680       10.078785
 H         2.193786        8.499367       10.869658
 H         5.977160        8.465017       11.517092
 H         5.996419        8.452835       13.067746
 H         7.413334        8.407161       16.824080
 H         6.500609        7.165467       16.814049
 H         6.430727       13.680438       16.917747
 H         5.950625       12.417756       17.674946
 H         1.800099        8.748942       16.042797
 H         1.824347        8.742700       17.589273
