384

O   9.072532896359   1.697176398185   12.302903409810
O   12.958785305035   4.511121602201   10.046189429282
O   14.254353757724   5.384461853472   12.299673125409
O   12.930667601067   4.466011333631   14.521312700985
O   10.378160153921   0.762207754609   14.535592670337
O   10.326851970592   5.364598497984   14.423265143709
O   12.989003082754   1.763296758580   10.065012515398
O   12.944460655010   1.716495650622   14.542937337869
O   9.061060384101   4.516789105560   16.641305468825
O   9.014358019149   4.429443478860   12.241558423920
O   10.355216314515   5.393133197747   10.054074760380
O   10.401992372286   0.825520337419   10.086821855630
O   14.271816224355   0.844603233513   12.309742158696
O   14.265706445726   0.898906596405   16.798810592847
O   14.218950206003   5.443506120548   16.767127875473
O   9.113850874420   1.737928558825   16.748304667443
O   9.062586649146   9.140662971867   3.520447238151
O   13.056340499467   11.944017190897   1.127465785105
O   14.300159110838   12.814041553044   3.390840738660
O   12.950478254894   11.817020290142   5.573524568869
O   10.382648317802   8.157050829855   5.710658591015
O   10.360426698183   12.751736993993   5.587926441661
O   13.277551362169   9.234341969743   1.281161228067
O   12.977778130132   9.068042799502   5.626593691005
O   9.112654854347   11.825165790480   7.844243000251
O   9.063411953654   11.881054932163   3.361370894437
O   10.394358408166   12.681579304803   1.093860824099
O   10.837086039284   7.182579443540   -0.248664108406
O   14.411053778373   8.151643728847   3.490458082404
O   14.278847236238   8.175431235767   7.866072997249
O   14.257923780962   12.722529892366   7.799890461057
O   9.083368191839   9.087893935495   7.919555405663
O   1.390501002253   9.113545621201   3.390617851864
O   5.207171961820   11.779200300917   1.111026338988
O   6.459327454006   12.756931858515   3.346230042002
O   5.224796337501   11.823942884778   5.608125988867
O   2.635684962778   8.170675815439   5.642584606296
O   2.639051046860   12.742446836673   5.591192875806
O   5.211074193999   9.026646926168   1.105821003485
O   5.210294996751   9.087231468511   5.633617468704
O   1.325743193798   11.843398317088   7.827148126258
O   1.345028875333   11.851163869567   3.347309245563
O   2.627421914182   12.721650852530   1.089244373929
O   2.603039469508   8.172662747652   1.122533201349
O   6.483658082466   8.194789381426   3.381525667816
O   6.511917730309   8.151687247250   7.852620292681
O   6.518290849928   12.727604082524   7.855552768817
O   1.318701982376   9.098781387513   7.863247062567
O   1.352554968779   1.773468030507   3.349363290467
O   5.161879675655   4.518891604744   1.105699514425
O   6.416285976696   5.471511467672   3.359186957841
O   5.147094053811   4.535429929885   5.595850079361
O   2.630907769666   0.875973048503   5.602899795604
O   2.548246548038   5.430144503847   5.571621008348
O   5.215430673557   1.776894034981   1.089101088074
O   5.212532735327   1.792548370954   5.599245425517
O   1.276833101265   4.518814712108   7.815652840693
O   1.263969156720   4.511168247903   3.324910248185
O   2.582402024816   5.431737172707   1.092144005700
O   2.632433507681   0.854126402167   1.096201898326
O   6.504650892640   0.907077696889   3.346109593397
O   6.488098711969   0.869180273219   7.850941717869
O   6.483521934008   5.408097456999   7.836549460045
O   1.322005178142   1.777532056388   7.838207835686
O   9.109727666802   1.833563174229   3.294144543269
O   12.779815270621   4.648576720179   1.004131349330
O   14.176390409180   5.407709363309   3.273396683649
O   12.932573277152   4.545538530456   5.571643573897
O   10.371206227845   0.911859388269   5.553516171125
O   10.342536437956   5.441896299854   5.610240753590
O   12.966108574007   1.839850742568   1.100585373619
O   12.963474555133   1.809001468146   5.600692779549
O   9.064996745339   4.477995196175   7.825636382976
O   9.020388589562   4.561793329851   3.329253393740
O   10.276648409169   5.495067297215   0.760577095612
O   10.390483706466   0.853125726846   1.071478581465
O   14.274853762772   0.949227211121   3.347903026078
O   14.272034483779   0.857419861924   7.816005903329
O   14.235249373455   5.448835656693   7.810369509476
O   9.091449776452   1.741853902332   7.843008289087
O   1.310797518096   1.793902866806   12.342596866972
O   5.189626763206   4.469625600599   10.064609800732
O   6.449258873480   5.381029909014   12.331828552512
O   5.135388497270   4.459547116318   14.569551145690
O   2.619935930045   0.862616189176   14.570923681923
O   2.572949064188   5.426837756582   14.559171409047
O   5.173239907344   1.734422907412   10.097309960192
O   5.216335572888   1.721410984524   14.568205731243
O   1.280855610381   4.533577207132   16.794966721400
O   1.320837596270   4.534647921624   12.305848104840
O   2.605878347461   5.405764595516   10.042893548593
O   2.578169902779   0.862963955654   10.094081734028
O   6.484990737926   0.802932159516   12.321894679799
O   6.522200099798   0.805105324357   16.815885113795
O   6.468002646330   5.330142584839   16.774147615177
O   1.321953851991   1.788277786759   16.809314502570
O   9.027261666034   9.063536018581   12.233300662566
O   13.002736962173   11.781832250906   10.061423061730
O   14.293605308967   12.698101729398   12.311895063613
O   12.989158583998   11.768792015037   14.540720449825
O   10.383613118790   8.093420309397   14.368089001830
O   10.385253186294   12.612784129518   14.604763216744
O   13.000713396995   9.050808107214   10.118413374022
O   12.979120802774   9.021473236834   14.571166938379
O   9.118467134439   11.563545985684   16.844500454821
O   9.093463031162   11.792940896036   12.318384122005
O   10.419103095864   12.693519387906   10.088895312011
O   10.428957505410   8.133158499943   10.096846689836
O   14.290293358101   8.123625208281   12.345063590497
O   14.277590267086   8.184473111428   16.847080725823
O   14.280771758069   12.764766428838   16.758684061238
O   9.012439511005   8.755760413563   16.631843181334
O   1.327839708131   9.065129331307   12.303948412737
O   5.199488803387   11.807087974996   10.077509870084
O   6.497325745625   12.670332721256   12.333014085582
O   5.227565600967   11.796963884084   14.593059971162
O   2.610056316245   8.168881617034   14.550653968006
O   2.636250522396   12.724550677265   14.570323051528
O   5.189997733543   9.067143778210   10.063431017529
O   5.195976825934   9.065893221676   14.542578987608
O   1.319779209674   11.824070301256   16.794397750847
O   1.356862167379   11.802312511188   12.324744712526
O   2.618608522170   12.726998873026   10.071947740765
O   2.617541120434   8.147828846995   10.081005047751
O   6.457967452936   8.130617233218   12.302701475980
O   6.411739722327   8.077586674243   16.793801399504
O   6.542189044572   12.647382969551   16.826533224569
O   1.334240969062   9.084490631659   16.801192767433
H   9.554432621623   1.380192873882   11.530118986618
H   9.541930152865   1.362533122447   13.073868858054
H   12.050272604636   4.829461791105   10.028563742481
H   13.388562807083   4.856126036593   9.255691248042
H   13.783653826982   5.038930227856   13.065318962562
H   13.783563857520   5.071102715281   11.519686330962
H   12.012924248993   4.752109344767   14.487274669906
H   12.920253379561   3.503091195544   14.535105242289
H   11.295061522223   1.058458595932   14.539814650099
H   10.394594732894   14.401931133140   14.570506337972
H   9.870712709106   5.052858453288   13.632330969700
H   10.353048382808   6.327061088048   14.368877503037
H   13.440303484185   1.464656247584   9.268018436948
H   12.985243449323   2.725891569372   10.036377219837
H   13.427820536542   1.399939870290   13.771757164652
H   13.429372848670   1.420194256522   15.320478237206
H   9.463988507553   4.838217941659   15.821588831818
H   8.139086853718   4.806800345822   16.653220941525
H   8.099555526695   4.729629126169   12.269253573085
H   9.002743764447   3.466191794790   12.262349136226
H   9.875839273225   5.043783683875   10.812083314134
H   9.892838994969   5.071604595258   9.271965535377
H   11.312393884904   1.138959711928   10.075162445748
H   10.439388645422   14.464654227341   10.083220494913
H   15.169424602187   1.193578097426   12.303230463460
H   13.840677987960   1.176759634461   11.514804396506
H   15.172986987044   1.222501395412   16.821403401870
H   13.832087583522   1.231895311201   17.590147074170
H   13.763118936061   5.147166856147   15.973447272400
H   14.214964934991   6.407287039346   16.760811754264
H   9.556174558164   1.403277938967   15.959281765722
H   9.108327454253   2.694365196256   16.676735927345
H   9.082684163744   10.102349501545   3.449998675744
H   9.653401188962   8.824254249259   2.825742333366
H   13.484684104172   12.225475754721   0.313024638099
H   13.160781179826   10.987058865441   1.170436390016
H   13.843337582203   12.514472889623   2.596258598212
H   13.811265116004   12.458462146656   4.140316062427
H   12.932589550198   10.853871602053   5.575846052760
H   12.034747297716   12.114092950269   5.571860041512
H   9.917455572761   8.521500265638   4.949710381607
H   9.920768345491   8.487934217159   6.488308436275
H   10.364608760008   13.713248283816   5.563750907599
H   9.898815661930   12.461624454933   4.792281661780
H   13.743523350294   8.875879883342   2.047914519551
H   12.355921311517   9.007374496844   1.466425040551
H   13.409248748458   8.758627896955   6.429472311241
H   12.075770114765   8.731073947212   5.649045460691
H   9.534122058022   12.154081022655   7.042328480433
H   8.207591740144   12.153774716869   7.834773818905
H   8.157789000493   12.202179472210   3.314973088818
H   9.509186813934   12.156873210069   2.553805966998
H   10.407024790103   13.641993672618   1.070318912879
H   11.315316392175   12.401872324380   1.115067260535
H   10.022938428931   7.631393722790   -0.562724881523
H   10.980499461053   7.598390141751   0.633221614843
H   13.881144128114   8.447492351245   4.239692599996
H   14.304181104152   7.197669577250   3.428946777488
H   15.180889670182   8.513169137733   7.877676560205
H   13.851346746287   8.494814680906   8.667828549249
H   13.779481635869   12.393220693006   7.030673280698
H   13.805432815612   12.378871371264   8.576974060751
H   9.109209015736   10.050569345047   7.918038851961
H   9.564471483165   8.788325310203   8.698007459480
H   1.848268713280   8.797961176250   4.176748587479
H   0.497277754837   8.752743655132   3.450066369489
H   5.227317416447   10.816853474687   1.132723109672
H   5.652423466795   12.089814611957   1.906630077768
H   6.026850614665   12.452286500388   4.151046589926
H   6.451503500453   13.718629220265   3.368735925036
H   5.233956735172   10.860723865553   5.631005701904
H   5.680274167090   12.122161436405   6.402426828157
H   2.163057281480   8.471414580929   6.425782287092
H   2.587018973466   7.209085120849   5.635559072059
H   2.210150487743   12.420752776261   4.790735141208
H   3.540982210727   12.404628354800   5.581357405683
H   4.299652205688   8.716943681754   1.139507840422
H   5.644015209835   8.718933976249   1.909936124464
H   5.656129998502   8.745423281221   6.416028024672
H   4.307132868173   8.752818396341   5.662142707475
H   1.765832641367   12.164558876168   7.032919964610
H   0.416769220470   12.159754078796   7.791995607917
H   1.316775934072   10.888020939201   3.362723712315
H   0.433256146939   12.160913306303   3.366345071436
H   3.527008221004   12.378300782517   1.109256360961
H   2.191496350849   12.402801522375   1.887163952737
H   2.149641259346   8.516046018716   1.900578262015
H   2.143756716328   8.517236450862   0.349770923109
H   7.388601772138   8.525133053035   3.407448222561
H   6.050444613425   8.520049507928   4.178340560177
H   6.533118163162   7.188888335960   7.848953021388
H   7.426353680995   8.453930173977   7.875852990827
H   6.053003359672   12.427919869664   8.643681399902
H   6.493713346322   13.690138985529   7.870292540152
H   1.781576316470   8.798994110298   8.652489802401
H   1.337353323184   10.061517734377   7.870839233424
H   1.818445818536   1.432506216067   2.578976930088
H   1.820632469689   1.450215057655   4.126745918144
H   5.584516778594   4.865331304952   1.898567867906
H   4.256626157443   4.849995569964   1.110561623315
H   7.324952808692   5.160825673511   3.362813662320
H   6.459121436565   6.435487248856   3.366486680419
H   5.605883892698   4.885202061778   4.824591806421
H   5.621809426402   4.858619186202   6.368907723205
H   2.654262426126   14.514779266221   5.603975840563
H   3.546492308601   1.174800018661   5.602312696101
H   3.451802854384   5.097846340456   5.558279084020
H   2.116117847775   5.104342813055   4.774676573082
H   5.170539328480   2.738785054762   1.097353556423
H   4.305167954288   1.460697716914   1.090986852621
H   5.202546836785   2.755553684039   5.578206423713
H   5.673581118206   1.504973317501   4.804336302667
H   1.701351310342   4.850543150081   7.016967639195
H   0.372066904962   4.850064083882   7.802954356129
H   1.725338064545   4.817704153308   2.537666166429
H   1.310206368940   3.549347645856   3.313842933867
H   2.569428545895   6.395096709712   1.085825155647
H   2.119558181281   5.142941793757   0.298542673349
H   2.168023163036   1.159677369944   0.310365992711
H   2.620859369628   14.492994205721   1.071043477858
H   6.064744785333   1.224779063779   2.550222962143
H   7.410548679694   1.228085181118   3.309861792819
H   6.006968695293   1.189597038239   8.621051001406
H   6.029359529345   1.206043975619   7.074285334041
H   7.381585021233   5.060423130857   7.846168971574
H   6.049127949422   5.070068548158   8.626731471697
H   1.787676436268   1.480610588633   7.048899810976
H   1.310389879467   2.740229264594   7.807630588738
H   9.564944368717   1.506899608816   4.078537966455
H   9.569994556423   1.464991337077   2.532512736208
H   13.238174361471   4.960364566589   1.793543312363
H   13.312309157090   4.932959848338   0.250192731994
H   15.076059662732   5.067057867460   3.292752810027
H   13.748401091919   5.092915404411   4.076661034415
H   12.015758095037   4.840002720213   5.578272935053
H   12.917182829618   3.582843114814   5.594974642969
H   9.936023878398   1.212298170090   6.357830044326
H   11.278438175522   1.232608147828   5.592012857648
H   9.881831154249   5.179328625918   4.811206604825
H   10.345442981151   6.407631139241   5.623590816613
H   13.428539947807   1.562217759522   1.899594182346
H   12.929112788486   2.798086181008   1.110549843242
H   13.439045821718   1.501002697882   4.821763986893
H   13.437451569327   1.466413686553   6.366044709176
H   9.516846980889   4.790228103983   7.034040285280
H   9.093753012851   3.515511761048   7.807672409813
H   9.440061134894   4.922585377671   2.558509418706
H   9.083054701901   3.599448583464   3.270007284204
H   11.215908699703   5.212697270082   0.802836183042
H   9.862515967984   5.109554025138   -0.048608874571
H   11.290962561252   1.191143768326   1.059132984417
H   9.965010763689   1.170889853116   0.269086711358
H   15.196235177939   1.230465097738   3.349755658618
H   14.289027866120   14.587468412531   3.364749878878
H   14.284203702487   14.496066312825   7.813854497540
H   15.189618434747   1.149407266784   7.821100000727
H   14.242575578798   6.412690252435   7.803592814845
H   13.775159939493   5.164070273600   7.013432356987
H   9.530767922707   1.404870257356   8.630243564196
H   8.183378864578   1.422244409376   7.869187205961
H   1.330363630573   2.756566852892   12.358396812563
H   1.775542940060   1.489685969063   13.129207258486
H   5.197123429311   3.506703164871   10.096214560713
H   5.625163026943   4.774966332510   10.866790114875
H   5.982217540719   5.089930388643   13.121340217524
H   6.444476639210   6.344215936358   12.341787831461
H   5.124337317287   3.496407719734   14.560695599454
H   4.220138810177   4.760390810610   14.565559951198
H   3.542027685677   1.140516459336   14.571650679197
H   2.627672919857   14.501123805676   14.569787419278
H   2.588552037443   6.390139814507   14.540658574992
H   2.126207015255   5.143246289535   13.753583687087
H   5.612081315829   1.388773897263   10.881602855489
H   4.264288086994   1.415918123349   10.120216435544
H   5.688069362940   1.391454445300   15.339864621961
H   5.681247180300   1.388890597474   13.792523481507
H   0.373547906967   4.853896621438   16.769436463171
H   1.711978550800   4.865384026251   15.999536820330
H   0.409486098366   4.845362833593   12.277145342513
H   1.752681930857   4.850394936525   11.504858632382
H   3.503024160368   5.056557374539   10.026370535282
H   2.163069417986   5.084043373938   9.250173202743
H   2.122069844947   1.202256157870   9.316166129559
H   2.109694267462   1.199500163694   10.864994253450
H   6.507109489781   14.441635409529   12.324082083895
H   7.402032326179   1.097282285144   12.306930194724
H   7.423851824519   1.139158145513   16.825248959117
H   6.084833124047   1.157612203031   17.598058124268
H   6.008641795696   5.020024309741   17.562643722610
H   5.968485043656   5.007674025364   16.014394078155
H   1.324473362707   2.751015784577   16.785094993075
H   1.778901532475   1.487447627298   16.016730101963
H   8.110678487907   8.766618033202   12.253167409848
H   9.018528323247   10.026736743907   12.254612936901
H   13.461986744002   12.091725575461   10.848722873573
H   13.014736756684   10.819014108223   10.098472328297
H   14.306388306399   13.660891009878   12.311114664253
H   15.212381003975   12.409360250009   12.314194057711
H   13.444347646928   12.067261380781   13.746311398840
H   13.006567985876   10.806465077320   14.530443986919
H   9.857490853668   8.371954932153   15.122782906038
H   9.928002228630   8.445147177741   13.594038131919
H   9.965161385818   12.241225131509   15.386988704357
H   11.295614666857   12.297363874026   14.602114254638
H   13.433329940938   8.713726599135   10.910112307218
H   12.097660029746   8.715009702135   10.132684514507
H   12.077323310969   8.687869191888   14.545647740947
H   13.381957618939   8.714940273939   15.390312016259
H   9.553346877472   11.930728829297   17.620615033411
H   8.227834453003   11.924723117584   16.848105899616
H   9.564681828820   12.089644589904   13.103855145680
H   9.575449842618   12.127324597278   11.554335803658
H   9.978774844539   12.383071136539   9.289954395130
H   11.320186297497   12.353656658149   10.061012031322
H   9.927420389926   8.433833674445   10.862421506088
H   10.390563160497   7.170751107234   10.096891536915
H   14.269218621768   7.160773538619   12.352802400478
H   13.838562160401   8.416896600336   13.143669709302
H   15.187459081059   8.500664163704   16.823811507613
H   13.902102952508   8.524045777292   17.664761781713
H   13.819488296765   12.442934764261   15.977860095258
H   14.254284205949   13.726438438423   16.733374859401
H   9.098952832415   9.696865789316   16.810436886741
H   8.070851957677   8.548425485441   16.699100234195
H   1.762025061978   8.722522720797   11.514782359534
H   0.426053113970   8.727080494898   12.296222531082
H   5.630372752312   12.116515035148   10.881071486933
H   4.297864736486   12.145914998960   10.092639488145
H   6.075603059491   12.347806659010   13.136897264191
H   7.405276090033   12.349708166317   12.343547174461
H   4.325727539187   12.133896115323   14.611734820296
H   5.666009391303   12.119613148143   15.388910565650
H   2.174918011830   8.494967204975   13.755297494820
H   3.514931214790   8.497679619865   14.525741721657
H   2.180377250036   12.385095737499   13.792739716834
H   2.156182779939   12.398071467437   15.339169119270
H   5.201072510472   10.030139521594   10.044471483082
H   5.659813008820   8.766261880920   9.277618394275
H   5.622286606482   8.739974800376   15.341663806070
H   5.221247590689   10.028271973379   14.585505300709
H   0.419702948640   12.166671109935   16.807059818380
H   1.755804623487   12.146274869212   17.590350606311
H   1.356439134146   10.839427103757   12.296025414418
H   1.803383310091   12.103310890469   11.526168248552
H   2.591244823211   13.689823794040   10.064917594532
H   2.157883835023   12.435393087369   9.277516856128
H   2.639421811819   7.185176259740   10.061451570992
H   3.533038673130   8.448218118587   10.072951961989
H   5.987289000316   8.462477500634   11.530262866088
H   6.000703512779   8.474693417877   13.077764491825
H   5.990991418317   8.386041797806   17.605568533105
H   6.391833643349   7.115525042072   16.812254456695
H   6.074839442442   12.358741760056   17.618118177408
H   6.543915849091   13.609224249862   16.846595676398
H   1.338680991031   10.047229865985   16.774710170778
H   1.790826833374   8.782895757323   16.008772831771
