384

O   9.072477466036   1.696895907904   12.302891487835
O   12.958701486487   4.511091525830   10.046116256834
O   14.254269898989   5.384391551362   12.299573615868
O   12.930553912207   4.466064531939   14.520994474658
O   10.378136986733   0.761711104082   14.535504007598
O   10.326953954899   5.364666852379   14.422460672571
O   12.988986777016   1.763286766269   10.065009450929
O   12.944246009550   1.716348739488   14.542905425262
O   9.060139038832   4.515480464679   16.640298792684
O   9.013947404485   4.429169336676   12.240858496245
O   10.355161192669   5.393123196234   10.053860635776
O   10.402029037208   0.825486807364   10.086728620814
O   14.271827621039   0.844597260619   12.309736063374
O   14.265646082477   0.899414453530   16.798988214271
O   14.218431672573   5.444016164219   16.767581124237
O   9.113906153907   1.737637895834   16.748034287944
O   9.064827618225   9.140324680509   3.519177306562
O   13.057249263945   11.945992139713   1.127966775572
O   14.300533190519   12.814837738927   3.391185762777
O   12.950459892224   11.817106844000   5.573471933824
O   10.382810782279   8.156988051359   5.710709023782
O   10.360350664526   12.751778621401   5.587919092989
O   13.281661171324   9.236057494684   1.284453451989
O   12.978008986681   9.068114956283   5.627044749350
O   9.112675722206   11.825269394881   7.844289460369
O   9.063511778048   11.880597965835   3.361419650261
O   10.394708756129   12.681095147128   1.094209978111
O   10.835559908064   7.179027175931   -0.255695271958
O   14.414272904949   8.150913406558   3.493577935331
O   14.278815672658   8.175555589900   7.866163969584
O   14.257944877512   12.722565715186   7.799927799661
O   9.083372386608   9.088009415408   7.919738775476
O   1.392836185079   9.113971326718   3.391057693950
O   5.207162705470   11.779196941478   1.111155501137
O   6.459468637714   12.756976001393   3.346299681817
O   5.224774196086   11.823978998209   5.608210799542
O   2.636696158701   8.170692171898   5.643271668824
O   2.639045571239   12.742576267541   5.591291203446
O   5.210805727183   9.026701921370   1.106107305814
O   5.211107704881   9.087196686095   5.633357840993
O   1.325739249831   11.843456012878   7.827204236756
O   1.345151826173   11.851440054284   3.347399106226
O   2.627374705680   12.721712915289   1.089339445485
O   2.603287147913   8.172789468947   1.122373406082
O   6.485000700276   8.194924931739   3.381362359261
O   6.512021376022   8.151749120611   7.852715100216
O   6.518321662741   12.727630574929   7.855632321906
O   1.318699840340   9.098858730184   7.863304774941
O   1.352626195851   1.773490336563   3.349405784359
O   5.161810300252   4.519026946892   1.105595224439
O   6.415934205197   5.471582126911   3.359434500658
O   5.146875669672   4.535508695382   5.596022989894
O   2.630929378122   0.876031376256   5.602957008033
O   2.548076230265   5.430299851093   5.571647994813
O   5.215394225643   1.776924129272   1.089134006189
O   5.212582902699   1.792627832039   5.599287836700
O   1.276735202735   4.518850867491   7.815646662951
O   1.263879309295   4.511086413031   3.324908676024
O   2.582436290016   5.431883341872   1.092161374298
O   2.632424454712   0.854121505662   1.096279744644
O   6.504705043053   0.907289132751   3.346101474371
O   6.488097501154   0.869230146271   7.851012601512
O   6.483459591617   5.408167527692   7.836592215527
O   1.321954538865   1.777585155246   7.838213681393
O   9.109931995072   1.833970673948   3.293985955418
O   12.778055452914   4.649941698851   1.004282458300
O   14.176229312330   5.407494511123   3.273169791603
O   12.932554279079   4.545625868371   5.571826407933
O   10.371146980697   0.912087927847   5.553325934680
O   10.342465581784   5.442061561843   5.610264232227
O   12.965769591982   1.841420624500   1.100773506089
O   12.963433398325   1.809018273345   5.600680921563
O   9.064912714093   4.478037912770   7.825517811168
O   9.019717709032   4.562068270498   3.329511658480
O   10.274164433302   5.496170238588   0.759646327483
O   10.390475276038   0.853278181005   1.071568590321
O   14.274672942412   0.949778836148   3.347753633474
O   14.272013587919   0.857464101900   7.815934888098
O   14.235244170753   5.448944085042   7.810413612602
O   9.091464519973   1.741881543427   7.842969431103
O   1.310780618566   1.793943878806   12.342627322750
O   5.189514332491   4.469613778946   10.064586603912
O   6.448930389136   5.380975233670   12.331751211705
O   5.135131527692   4.459527597345   14.569488131853
O   2.619937905049   0.862618886281   14.570946250483
O   2.572861993211   5.426896092269   14.559131639763
O   5.173199560358   1.734370983297   10.097360028336
O   5.216299829655   1.721356821705   14.568276607861
O   1.280823626716   4.533691292485   16.794968262974
O   1.320765651088   4.534677995928   12.305830764827
O   2.605783167591   5.405788438491   10.042868230446
O   2.578108286663   0.862992696542   10.094112472233
O   6.484915183166   0.802839771404   12.321902987971
O   6.522305140339   0.804641776390   16.815882268408
O   6.467220556068   5.330369429768   16.773737024621
O   1.322068962565   1.788245503356   16.809362478608
O   9.027145302471   9.063832856002   12.232893784624
O   13.002782598717   11.781861136463   10.061440046937
O   14.293661369233   12.698178842991   12.311807064162
O   12.989136646696   11.768890410857   14.540481175921
O   10.383318080886   8.093632391509   14.366823312467
O   10.385143976311   12.612020756419   14.605339391915
O   13.000788785568   9.050806978872   10.118443678134
O   12.979102283234   9.021810619080   14.571684786256
O   9.118487972202   11.560575248852   16.844973729350
O   9.093375974109   11.793060860461   12.318490776044
O   10.419150818369   12.693498307143   10.088983561469
O   10.429026556374   8.133100817532   10.096903258818
O   14.290361888116   8.123561245175   12.345183267599
O   14.276855722433   8.185781573608   16.849118804679
O   14.281130696023   12.765279640979   16.758180576476
O   9.009694676102   8.753474889772   16.631704294229
O   1.327918372464   9.065169229869   12.303995305961
O   5.199481251643   11.807123093140   10.077565039739
O   6.497220607185   12.670263079828   12.333086880291
O   5.227581409817   11.797004844130   14.593099188072
O   2.609801081964   8.168880931336   14.550840781187
O   2.636317414293   12.724577278741   14.570426576683
O   5.189931862700   9.067182848268   10.063464210313
O   5.195230969058   9.066090982434   14.542119937877
O   1.319857524097   11.823982666156   16.794472776578
O   1.356853008067   11.802326800744   12.324825406406
O   2.618601380722   12.727030662188   10.072024317457
O   2.617539440748   8.147845431257   10.081007441284
O   6.457974163506   8.130626976295   12.302751922018
O   6.409203535144   8.076616562583   16.793528267561
O   6.542925951755   12.646538432267   16.826524019015
O   1.333602458209   9.084380859068   16.801437081565
H   9.554419962429   1.380037747043   11.530069791250
H   9.541897634256   1.362188761926   13.073797447629
H   12.050185590624   4.829434976475   10.028490506210
H   13.388508703142   4.856145908529   9.255655720982
H   13.783586136545   5.038837529482   13.065229241318
H   13.783501925927   5.071049972994   11.519549549642
H   12.012811802845   4.752181289916   14.486840666448
H   12.920118717844   3.503152498587   14.535084114219
H   11.295040041578   1.057959094602   14.539697198607
H   10.394419950890   14.401455265457   14.570693077586
H   9.870550963472   5.052503594717   13.631831911955
H   10.353423596072   6.327087408963   14.367642293068
H   13.440321220867   1.464636192804   9.268032589825
H   12.985223684566   2.725879968833   10.036382543931
H   13.427702735313   1.399888020079   13.771748860963
H   13.429286716087   1.420323419862   15.320466780333
H   9.463884158316   4.838139804243   15.821477128886
H   8.138535470500   4.806603030702   16.652600223065
H   8.099136424735   4.729304331590   12.268629987504
H   9.002391988790   3.465925866664   12.261815877585
H   9.875694098481   5.043701506476   10.811775035048
H   9.892886731848   5.071662806185   9.271643404426
H   11.312425433362   1.138947058300   10.075158160687
H   10.439440217612   14.464622927692   10.083161915922
H   15.169410960010   1.193625652085   12.303269938296
H   13.840685161365   1.176794161332   11.514813686908
H   15.172949095759   1.222919720402   16.821484703496
H   13.832033366425   1.232803601758   17.590158664479
H   13.762600440733   5.148155867643   15.973787974560
H   14.213732010406   6.407734816181   16.761532740831
H   9.556277066482   1.402975695658   15.959050360413
H   9.107947130836   2.694087339714   16.676206683440
H   9.084040462482   10.102065776857   3.449340431118
H   9.655506520635   8.824351253644   2.824153094788
H   13.485419392768   12.226595808322   0.313190147684
H   13.162726842745   10.989249976709   1.171637827328
H   13.843868018925   12.515979735170   2.596210323307
H   13.811419749452   12.459030505246   4.140410526550
H   12.932697814738   10.853946243816   5.575746169143
H   12.034752149214   12.114249110203   5.571800296239
H   9.917961964512   8.521446218759   4.949564733600
H   9.920762678489   8.488153858341   6.488091078641
H   10.364448900579   13.713275630174   5.563500461309
H   9.898721400055   12.461658236057   4.792313715937
H   13.747034682132   8.877587774589   2.051556872359
H   12.359842151830   9.007351388186   1.467160371093
H   13.409128016386   8.758776953675   6.430143856088
H   12.076094095635   8.730946153452   5.649159342183
H   9.534176678834   12.154159889446   7.042376285814
H   8.207595285083   12.153836965786   7.834820904610
H   8.157829669427   12.201501513053   3.314992813738
H   9.509232791135   12.156456221241   2.553826173711
H   10.407044314197   13.641452356408   1.070363425886
H   11.315856264196   12.401974269995   1.115489087953
H   10.020699332499   7.628717041590   -0.567160662068
H   10.985204354675   7.595678138412   0.624648082951
H   13.883539232349   8.446827544121   4.242211078382
H   14.306440416039   7.197134951725   3.430777309369
H   15.180854687703   8.513328555198   7.877612598004
H   13.851378353817   8.494944450847   8.667941412412
H   13.779506313169   12.393290432836   7.030687165201
H   13.805427712888   12.378916801585   8.576991356828
H   9.109284212594   10.050686971232   7.918248280232
H   9.564546339390   8.788359715522   8.698115422869
H   1.850941985746   8.798555154980   4.177056052202
H   0.499857833731   8.752688160571   3.451322995945
H   5.227154143957   10.816850534800   1.133006283555
H   5.652424392498   12.090008764786   1.906692579061
H   6.026906276881   12.452467638819   4.151131881106
H   6.451717445127   13.718655738494   3.368732557932
H   5.234146090717   10.860748093202   5.630983999674
H   5.680258533148   12.122223907187   6.402484555170
H   2.163686791296   8.471548179375   6.426200867223
H   2.587465911056   7.209133441028   5.635976995354
H   2.210099237019   12.420978071122   4.790819415251
H   3.540942016374   12.404663730048   5.581414628024
H   4.299394217498   8.716946802103   1.140133893507
H   5.644197681474   8.718753670553   1.909847226396
H   5.656768443152   8.745574207693   6.415952758117
H   4.307942994307   8.752777601436   5.661977190345
H   1.765845905786   12.164630251691   7.032982532559
H   0.416773286661   12.159822184471   7.792053999786
H   1.317320276522   10.888293010173   3.362912430357
H   0.433307761569   12.161011349998   3.366520498488
H   3.526941598904   12.378338691801   1.109409174232
H   2.191424427063   12.402963826948   1.887298248282
H   2.150466079417   8.516313929245   1.900711067955
H   2.143643221689   8.517334547722   0.349808370959
H   7.390008733581   8.525010419258   3.407022952973
H   6.052073167726   8.520343950476   4.178242764832
H   6.533136425274   7.188961719253   7.849023242944
H   7.426473894948   8.453992209163   7.876035066928
H   6.053024722028   12.427977306990   8.643768312687
H   6.493743569050   13.690164552856   7.870366322587
H   1.781497155981   8.799075188000   8.652588963238
H   1.337328394813   10.061599115231   7.870915596741
H   1.818473916871   1.432467773151   2.579032732652
H   1.820644434519   1.450209267910   4.126822165102
H   5.584353652966   4.865364457765   1.898556472762
H   4.256522304568   4.850048705640   1.110522142799
H   7.324465966631   5.160472861525   3.363161858260
H   6.459048429071   6.435562099853   3.366563248123
H   5.605565095090   4.885281727310   4.824704352778
H   5.621598878317   4.858738584328   6.369065713288
H   2.654277640352   14.514830767487   5.604067279554
H   3.546505161854   1.174854468434   5.602354646838
H   3.451608835017   5.097914214482   5.558341320313
H   2.115932302960   5.104476592028   4.774729063133
H   5.170492377274   2.738802060060   1.097216282996
H   4.305126529730   1.460709126079   1.090998898905
H   5.202512411168   2.755634231587   5.578263270440
H   5.673646442844   1.505136494225   4.804366415560
H   1.701234249705   4.850626449934   7.016969153528
H   0.371976763307   4.850133227927   7.802993763385
H   1.725162343691   4.817710484679   2.537675482895
H   1.310235191034   3.549256909390   3.313820811536
H   2.569385804228   6.395251245548   1.085781870678
H   2.119603024410   5.143072662034   0.298580899852
H   2.168033340255   1.159620195471   0.310427334927
H   2.620869800690   14.492976586987   1.071150771254
H   6.064795350320   1.224885995526   2.550171500184
H   7.410599907408   1.228268695801   3.309754885508
H   6.006958234272   1.189628495158   8.621123858381
H   6.029368070347   1.206106371201   7.074353407561
H   7.381512727367   5.060456767202   7.846194272704
H   6.049094403454   5.070152461288   8.626786251885
H   1.787676378732   1.480664464944   7.048926299173
H   1.310340028679   2.740278414110   7.807646591260
H   9.564962174589   1.507140764673   4.078404353341
H   9.569993888651   1.465126416504   2.532309242325
H   13.236050620501   4.962079352505   1.793823541301
H   13.310195728896   4.934666613873   0.250217843914
H   15.075732312403   5.066457349507   3.292462520414
H   13.748230918717   5.092756742876   4.076425700229
H   12.015733034131   4.839999755706   5.578464075322
H   12.917083640775   3.582941205210   5.595173983635
H   9.935973475081   1.212345498912   6.357699717653
H   11.278446203274   1.232668473037   5.591971286360
H   9.881739136889   5.179407299066   4.811285608839
H   10.345571076328   6.407841512500   5.623925506184
H   13.428414964229   1.563528207232   1.899639417800
H   12.928331536933   2.799596552933   1.110948555307
H   13.439045267824   1.501205748813   4.821671905487
H   13.437422003361   1.466418264661   6.366007309292
H   9.516776999023   4.790167434850   7.033891706980
H   9.093694927932   3.515561715570   7.807579996367
H   9.438898952053   4.922922955817   2.558509772200
H   9.082541145862   3.599732048022   3.270376509840
H   11.212958260200   5.213076117165   0.803023033753
H   9.860677962143   5.108613195883   -0.048575029904
H   11.290905316273   1.191430478547   1.058945107488
H   9.965133475726   1.170616836792   0.268977758765
H   15.196065489703   1.230896692970   3.349547759560
H   14.288887412677   14.588014208746   3.364821696011
H   14.284201457733   14.496115058582   7.813842256406
H   15.189600479332   1.149448511918   7.821096783077
H   14.242527351474   6.412801338271   7.803628253960
H   13.775116228905   5.164099189106   7.013518047029
H   9.530810164715   1.404882598297   8.630181384522
H   8.183387935596   1.422289819267   7.869204684563
H   1.330332848231   2.756605815003   12.358441022243
H   1.775517308141   1.489743360348   13.129246714400
H   5.197027564934   3.506687199322   10.096231435343
H   5.624995779746   4.774985620728   10.866778879619
H   5.982014096293   5.089901922184   13.121335876871
H   6.444327983869   6.344159370305   12.341827140216
H   5.124247536126   3.496384903329   14.560754568147
H   4.219850550280   4.760303131329   14.565384555008
H   3.542019957227   1.140534218138   14.571700878112
H   2.627658881835   14.501115535215   14.569835295424
H   2.588474475349   6.390206140503   14.540636985309
H   2.126096597506   5.143333384290   13.753543487562
H   5.612007667737   1.388742435833   10.881675075078
H   4.264228272313   1.415907634576   10.120268287878
H   5.688065722979   1.391429261869   15.339916411452
H   5.681278589017   1.388882627442   13.792605926209
H   0.373586375386   4.854131055528   16.769654148672
H   1.711946021809   4.865417401766   15.999489767408
H   0.409392300345   4.845329324317   12.277102730397
H   1.752615108906   4.850411428095   11.504832082646
H   3.502909979134   5.056538658201   10.026352793984
H   2.162950317140   5.084076946657   9.250147647073
H   2.122019363852   1.202295457912   9.316183819907
H   2.109639381343   1.199539778688   10.865011038898
H   6.506963126664   14.441533986191   12.324184237989
H   7.401973827844   1.097130430077   12.306964032459
H   7.423867746388   1.138960245226   16.825163366749
H   6.084843285667   1.157242906224   17.597946134477
H   6.008293489885   5.020071347642   17.562403679192
H   5.967748466578   5.007457781640   16.014102179891
H   1.324601879435   2.750967193093   16.785092104775
H   1.778913300224   1.487368617025   16.016730032924
H   8.110668495850   8.766615543261   12.253116520493
H   9.018208649722   10.027053362461   12.254313259390
H   13.462035877856   12.091755828299   10.848739011710
H   13.014790197818   10.819054809853   10.098538589701
H   14.306443514854   13.660971990537   12.311055964452
H   15.212429679344   12.409398736644   12.314187883453
H   13.444310938350   12.067520886460   13.746099808747
H   13.006671143692   10.806560017103   14.530452354121
H   9.856708128711   8.371302414760   15.121389508209
H   9.927904269928   8.445012264402   13.592375641792
H   9.965481049867   12.239652622089   15.387377581618
H   11.295647274899   12.297030016481   14.602314473255
H   13.433364856149   8.713706900206   10.910134003068
H   12.097744446594   8.714975266663   10.132726908967
H   12.077464161655   8.687962468435   14.546185129404
H   13.380896250505   8.715519895087   15.391336024815
H   9.554061704591   11.926996788462   17.621018409486
H   8.228341381294   11.922930485413   16.849018033260
H   9.564558752861   12.089565702518   13.104050367057
H   9.575483730649   12.127425614461   11.554506697776
H   9.978811215360   12.383080986465   9.290025609376
H   11.320243211002   12.353671138759   10.061098637140
H   9.927391609849   8.433783490891   10.862391777784
H   10.390563368123   7.170689485770   10.096891416255
H   14.269273863729   7.160688543027   12.352781773075
H   13.838831599531   8.416706126967   13.143886935608
H   15.187011653841   8.501187157740   16.824554418221
H   13.902829365264   8.525357606164   17.667533502205
H   13.819666893039   12.443304685260   15.977552784637
H   14.254463108010   13.726969842768   16.732909595113
H   9.096664292944   9.694821628072   16.809463918288
H   8.068204366365   8.544927759044   16.699242029988
H   1.762184116640   8.722560082603   11.514861971261
H   0.426175583802   8.727050727899   12.296246316996
H   5.630331635085   12.116497204020   10.881162251517
H   4.297849369098   12.145938413457   10.092703961953
H   6.075543575840   12.347819234363   13.137040646962
H   7.405169588246   12.349675610303   12.343619406125
H   4.325766461341   12.134007400946   14.611870074304
H   5.666155583894   12.119387709613   15.388977667829
H   2.174560853924   8.494819095866   13.755479180462
H   3.514585647776   8.497965970619   14.525814544564
H   2.180387057905   12.385126543930   13.792881632648
H   2.156271640417   12.398062693442   15.339271451263
H   5.201026923403   10.030177537168   10.044547727962
H   5.659774547523   8.766322855034   9.277657507874
H   5.621313183664   8.740067509142   15.341279827326
H   5.220685499465   10.028486555953   14.585000568644
H   0.419876099954   12.166838813606   16.806937216082
H   1.755870087618   12.146219622788   17.590421552746
H   1.356476966080   10.839443856321   12.296132613824
H   1.803394723099   12.103340232966   11.526258721132
H   2.591219442933   13.689851707034   10.064989296442
H   2.157881357607   12.435419857077   9.277587320555
H   2.639405348056   7.185198398071   10.061474656464
H   3.533045467962   8.448235671349   10.072944765813
H   5.987301859323   8.462417417353   11.530256844290
H   6.000517580929   8.474650370458   13.077708251085
H   5.989369817049   8.385780892873   17.605502729266
H   6.388380690185   7.114565978500   16.812259390697
H   6.075301589221   12.358122135028   17.618027345789
H   6.544653687795   13.608366708007   16.846423571355
H   1.338051379757   10.047117638919   16.774856716707
H   1.790107508878   8.782843892845   16.008983940252
