384

O   9.072652699476   1.697156521906   12.303041539896
O   12.958904575499   4.511053851459   10.046205392202
O   14.254498283770   5.384545757823   12.299714199205
O   12.930911567409   4.466311211436   14.521334768224
O   10.378255305125   0.761864384895   14.535546914436
O   10.327728025401   5.364844149561   14.422492425302
O   12.988961084656   1.763232031658   10.064890405893
O   12.944423849390   1.716602821659   14.542871334577
O   9.061636237213   4.516536119478   16.640599867510
O   9.014307221900   4.429391058405   12.241593857911
O   10.355416393197   5.393319192970   10.054569008869
O   10.401955499537   0.825620828210   10.086763081431
O   14.271817693089   0.844694571989   12.309623710221
O   14.265703392903   0.899163982544   16.798917646330
O   14.217939257910   5.444092500181   16.767781442041
O   9.114077557789   1.738216827813   16.748190892276
O   9.064818587822   9.139971700026   3.519409438387
O   13.056743163923   11.945053603555   1.127516937948
O   14.300171322805   12.814367107698   3.390766762411
O   12.950321585504   11.816886623564   5.573281720177
O   10.382899232394   8.157126755043   5.710856030824
O   10.360249929471   12.751887353756   5.587938032222
O   13.279976532446   9.235455306139   1.283203183026
O   12.978027403815   9.067850669371   5.626482235893
O   9.112503500504   11.825345274317   7.844296151536
O   9.063273535844   11.880450814911   3.361683641134
O   10.394352492426   12.680887600851   1.094364381325
O   10.837419035903   7.182089165695   -0.252158905039
O   14.413113932946   8.150843042731   3.491759105427
O   14.278700752046   8.175398394029   7.866078938784
O   14.257694507302   12.722469214167   7.799696430470
O   9.083142149372   9.088111460458   7.919660651590
O   1.391912321556   9.113573065876   3.390799032217
O   5.207019112708   11.779082760780   1.110991676878
O   6.459205351326   12.757054872834   3.346254893223
O   5.224445809474   11.823868742441   5.608118049975
O   2.636453781328   8.170602319678   5.642791000873
O   2.638715925883   12.742333519901   5.591106992467
O   5.210861720363   9.026604301374   1.105992200676
O   5.211166764015   9.087122934245   5.633036570710
O   1.325448729256   11.843345043211   7.827063158145
O   1.344895120370   11.851189279592   3.347103029123
O   2.627250117951   12.721503094232   1.089035252068
O   2.603183186603   8.172628173963   1.122504394063
O   6.485306212738   8.194944496064   3.380971974159
O   6.511826797500   8.151701967267   7.852580384043
O   6.518117660224   12.727559057217   7.855472964499
O   1.318574524111   9.098745869011   7.863030855248
O   1.352446621702   1.773238288263   3.349224439638
O   5.162292211788   4.519003809713   1.105508323878
O   6.416010844099   5.471594186276   3.359518262250
O   5.146614356734   4.535417519322   5.596037930100
O   2.630708823421   0.875824733430   5.602910509113
O   2.547659286263   5.430044784571   5.571391771565
O   5.215441305539   1.776948482100   1.089004295319
O   5.212356694763   1.792491599259   5.599259300972
O   1.276801962891   4.518661897877   7.815787027859
O   1.263116747533   4.510959438989   3.324277634820
O   2.582705540801   5.431733249807   1.091885971317
O   2.632491417657   0.853976214472   1.096153949151
O   6.504977955488   0.907576016285   3.346116910763
O   6.488078434656   0.869150052013   7.850895275715
O   6.483401412322   5.408118670902   7.836593188049
O   1.321806960070   1.777392447745   7.838206406708
O   9.110006485963   1.834988132327   3.293746810440
O   12.777403311647   4.650074367995   1.003836266737
O   14.175290572261   5.407428743575   3.272270194076
O   12.932904014021   4.545434848961   5.571505503544
O   10.370925683303   0.912226960292   5.553131284552
O   10.342987386044   5.442101140414   5.611286003010
O   12.965815123020   1.841586629969   1.100408634285
O   12.963360729386   1.808844844450   5.600572367670
O   9.064945589388   4.478125724932   7.826291158148
O   9.020386087089   4.563450154600   3.329964874980
O   10.274980447771   5.497071215822   0.760407541248
O   10.390580274218   0.852923035801   1.071460751162
O   14.274561628414   0.949592111435   3.347576267724
O   14.271858132724   0.857310024492   7.815900231840
O   14.235368643399   5.448774046200   7.810341956302
O   9.091377430114   1.742009763911   7.842989328031
O   1.310866063577   1.793856260096   12.342540198065
O   5.189690049593   4.469642094980   10.064681462593
O   6.449369414930   5.381082033711   12.331855216348
O   5.135891860584   4.459636377370   14.569805543922
O   2.619982051093   0.862585732026   14.570876687552
O   2.573333233448   5.426928889513   14.559297277814
O   5.173264192118   1.734466082804   10.097264445227
O   5.216395868799   1.721556895177   14.568184203381
O   1.280483947136   4.533811791717   16.794922755335
O   1.321119198250   4.534637059439   12.305887093931
O   2.605990879901   5.405768240882   10.042847821492
O   2.578190188834   0.862940781330   10.094000855228
O   6.485059706831   0.803050208990   12.321853673170
O   6.522419393150   0.804962148606   16.815756219704
O   6.468549848388   5.329883351753   16.774057009778
O   1.322107807954   1.788292869876   16.809266521497
O   9.027576446384   9.063513256019   12.234170662680
O   13.002628906585   11.781899306188   10.061272482034
O   14.293651088696   12.698152373960   12.311631528306
O   12.989132171359   11.768591102623   14.540302630384
O   10.383340305176   8.093156765054   14.368329421372
O   10.385252535405   12.612181832986   14.605443811249
O   13.000614546007   9.050866481415   10.118479372520
O   12.978883899819   9.021439418758   14.572077446177
O   9.118476449814   11.560472625172   16.845082205454
O   9.093503708142   11.792906968989   12.318672733505
O   10.418972677017   12.693565410237   10.088984014905
O   10.428792178534   8.133307783182   10.097156911713
O   14.290094695033   8.123754953966   12.345376502220
O   14.276917779567   8.185157299293   16.848464705454
O   14.280817646330   12.764837001793   16.758208398603
O   9.010488630008   8.753437719472   16.632816003944
O   1.327812963986   9.065162072488   12.303905631915
O   5.199424311275   11.807105809574   10.077486557601
O   6.497373420337   12.670450313396   12.332915704345
O   5.227631056060   11.796943706600   14.592873509212
O   2.609616754931   8.168956173672   14.550824719362
O   2.636296221962   12.724480192997   14.570289018493
O   5.190018758587   9.067123756707   10.063502451606
O   5.195223953858   9.065958188491   14.542066141254
O   1.319706488255   11.823621313710   16.794264210681
O   1.356936637239   11.802368585933   12.324609794593
O   2.618538081239   12.726989123048   10.071736349953
O   2.617456892168   8.147858026546   10.080870457035
O   6.458251320199   8.130648663143   12.302817928376
O   6.409652437714   8.076553711814   16.793561138993
O   6.542877909632   12.646661928259   16.826467406923
O   1.333544461920   9.084073290673   16.801472777075
H   9.554503717190   1.380291089348   11.530173582243
H   9.542058334319   1.362336761981   13.073918282775
H   12.050413000065   4.829468789216   10.028700095433
H   13.388602242858   4.856040751069   9.255667747112
H   13.783842207310   5.039007588555   13.065394736646
H   13.783733975934   5.071119642503   11.519737640096
H   12.013175030414   4.752510475072   14.486988616266
H   12.920387137924   3.503412567359   14.535277947515
H   11.295155228802   1.058113595921   14.539719311309
H   10.394610630896   14.401618277821   14.570821377103
H   9.871182598179   5.052946184221   13.631863785884
H   10.353839346883   6.327316604413   14.368009411389
H   13.440207973764   1.464550939279   9.267878144937
H   12.985242275385   2.725826131391   10.036253709059
H   13.427780205906   1.400169464331   13.771644286788
H   13.429428364392   1.420319502442   15.320355717229
H   9.465336677963   4.838365242159   15.821402743155
H   8.139811335304   4.806918113903   16.652170035985
H   8.099501393757   4.729564411266   12.269215671433
H   9.002719365419   3.466141393988   12.262439368948
H   9.876068430618   5.043936067579   10.812583776558
H   9.892969514988   5.071784165573   9.272497277123
H   11.312375443345   1.139014865716   10.075048002327
H   10.439310465339   14.464758355194   10.083183361493
H   15.169431112493   1.193640090438   12.303104429398
H   13.840695453051   1.176807645555   11.514654787587
H   15.173022004984   1.222603535945   16.821451147187
H   13.832073139325   1.232699448264   17.590016068017
H   13.762448755528   5.147968154836   15.973842495931
H   14.213910236600   6.407861470609   16.761546579266
H   9.556476741515   1.403461267203   15.959286817421
H   9.108838830472   2.694682887630   16.676544873303
H   9.084275197479   10.101651586442   3.449412788299
H   9.656024264269   8.824054906751   2.824743267389
H   13.484796614659   12.226166740842   0.312806777887
H   13.162018746174   10.988257912012   1.171017624397
H   13.843416766199   12.515167761208   2.595987746968
H   13.811180659412   12.458648656071   4.140105801619
H   12.932504484966   10.853739139002   5.575506010437
H   12.034607584376   12.113996686340   5.571654211123
H   9.918080946548   8.521317197619   4.949578683794
H   9.920831471693   8.488322816169   6.488248739672
H   10.364339036689   13.713382835356   5.563490474306
H   9.898570670878   12.461563063443   4.792409158056
H   13.745597261704   8.876841993567   2.050035743256
H   12.358397130512   9.007758390943   1.468020900740
H   13.409353359784   8.758538579979   6.429490836468
H   12.076029514738   8.730880784761   5.648884050908
H   9.534016380185   12.154220430191   7.042387314766
H   8.207407042002   12.153862523445   7.834732553075
H   8.157566678580   12.201323516989   3.315251462621
H   9.509022518263   12.156354705109   2.554117301986
H   10.406700751785   13.641273032317   1.070579141219
H   11.315454459347   12.401613415490   1.115774619314
H   10.023015803958   7.631808457807   -0.564639322561
H   10.983504572614   7.597245919597   0.629504890054
H   13.882551195017   8.446792115499   4.240484911112
H   14.305249102409   7.197038367880   3.429421222473
H   15.180725361385   8.513197434711   7.877536320947
H   13.851224661530   8.494840000797   8.667812882227
H   13.779292382269   12.393133953702   7.030461666677
H   13.805180703162   12.378839815033   8.576777395549
H   9.109007429844   10.050794199772   7.918157122690
H   9.564203843593   8.788497805282   8.698110797836
H   1.849934837301   8.798135168233   4.176845686984
H   0.498894134787   8.752318101361   3.450621777936
H   5.227050405951   10.816743410414   1.132908178374
H   5.652260168261   12.089862207524   1.906538731052
H   6.026625022789   12.452531964547   4.151070772635
H   6.451723254966   13.718730498411   3.368792816569
H   5.233994470711   10.860640385257   5.630809486332
H   5.679949137459   12.122104255313   6.402384018232
H   2.163588188254   8.471510111443   6.425787188670
H   2.587233796679   7.209052483854   5.635624159090
H   2.209824212539   12.420735070932   4.790609812141
H   3.540626167003   12.404450030601   5.581284660180
H   4.299453707641   8.716833513203   1.140025855057
H   5.644324601893   8.718807169604   1.909771062960
H   5.656783048485   8.745431709113   6.415635474197
H   4.308038995510   8.752621463775   5.661468173760
H   1.765503935298   12.164466894633   7.032792649017
H   0.416474174441   12.159689081289   7.791914448079
H   1.316925486106   10.888053808364   3.362622198295
H   0.433060568589   12.160787403783   3.366173817307
H   3.526827926895   12.378156198693   1.109156095936
H   2.191279358417   12.402769142458   1.886982668626
H   2.150079659265   8.516059491613   1.900722722993
H   2.143667430489   8.517126951552   0.349846415559
H   7.390410096351   8.524764675955   3.406660416012
H   6.052401261751   8.520423703593   4.177854667201
H   6.532996206294   7.188915454202   7.848866201329
H   7.426270210222   8.453962915650   7.875848060377
H   6.052868750083   12.427912728277   8.643642992582
H   6.493591750987   13.690093853653   7.870210348112
H   1.781404066089   8.798987395090   8.652304279315
H   1.337120017469   10.061488868947   7.870669900006
H   1.818384210380   1.432227470386   2.578898893349
H   1.820444795236   1.450020531878   4.126670662923
H   5.584665963645   4.865419326104   1.898525373779
H   4.257044003234   4.850118210784   1.110130758426
H   7.324672826430   5.160866843920   3.363360818877
H   6.459067702727   6.435568893932   3.366533365325
H   5.605374288556   4.885251385548   4.824798376663
H   5.621371147949   4.858578416792   6.369085957467
H   2.654008850499   14.514623541269   5.603984314272
H   3.546295612596   1.174609011934   5.602307439213
H   3.451195692233   5.097673836862   5.558043726165
H   2.115440449059   5.104295964331   4.774503723230
H   5.170599651897   2.738831375999   1.097239828379
H   4.305167867824   1.460765923108   1.090986110688
H   5.202221459295   2.755497758672   5.578318321280
H   5.673552035086   1.505107664868   4.804373410619
H   1.701148841455   4.850383931358   7.017017035519
H   0.372039208151   4.849943592535   7.803201664242
H   1.724840989385   4.817536277099   2.537290312499
H   1.309687499486   3.549141121810   3.313386243580
H   2.569628728030   6.395100946141   1.085687787827
H   2.119704968232   5.143027689287   0.298358421515
H   2.168110189259   1.159562275810   0.310328720471
H   2.620898962835   14.492836968034   1.070943577462
H   6.064957672835   1.225088447514   2.550226474644
H   7.410768822322   1.228858014179   3.309768779364
H   6.006978155487   1.189580891457   8.621018077641
H   6.029297942659   1.205999912079   7.074258216993
H   7.381495784365   5.060509039150   7.846312576253
H   6.049042758147   5.070174072510   8.626826537995
H   1.787469485131   1.480473992672   7.048885877401
H   1.310221826530   2.740086897550   7.807661416329
H   9.565015898472   1.508124530391   4.078156340264
H   9.570124417875   1.466036740634   2.532178575476
H   13.235960470059   4.961821786136   1.793170882692
H   13.309626612569   4.934515074559   0.249679852845
H   15.074813657094   5.066436502429   3.291234231311
H   13.747588625471   5.092648078493   4.075687336791
H   12.016120951462   4.839941432939   5.578605750313
H   12.917391435796   3.582739190147   5.594877694973
H   9.935820955784   1.212575400908   6.357504010470
H   11.278239937898   1.232750671903   5.591740007164
H   9.882245733215   5.179835071179   4.812194513525
H   10.346088395954   6.407863249632   5.624754838732
H   13.428191411456   1.563970914045   1.899489083751
H   12.928063594840   2.799748145494   1.110500538628
H   13.438934887174   1.500932793666   4.821587437886
H   13.437318923439   1.466201958834   6.365899058829
H   9.517035439779   4.790331409979   7.034826496397
H   9.093650176055   3.515642191525   7.808206938186
H   9.439518504892   4.924725052376   2.559083831008
H   9.083259265515   3.601201715549   3.270307000895
H   11.213792054753   5.213424844750   0.804260955857
H   9.860788541372   5.109670442340   -0.047778459031
H   11.290916336267   1.191324648482   1.059150147523
H   9.965144772482   1.170713773822   0.269081953594
H   15.196011728245   1.230553685873   3.349488094192
H   14.288597655248   14.587832531289   3.364370630925
H   14.284019973782   14.495957826078   7.813711199316
H   15.189447732749   1.149289023002   7.821027193264
H   14.242582057494   6.412629313865   7.803535335850
H   13.775488389941   5.163927396929   7.013312186643
H   9.530746514910   1.404920064543   8.630152088854
H   8.183328493338   1.422338286368   7.869150956184
H   1.330509210766   2.756516028514   12.358373597489
H   1.775569834435   1.489599103246   13.129159725317
H   5.197213455700   3.506709597214   10.096233538929
H   5.625251983211   4.774967806253   10.866843490575
H   5.982457243564   5.090061608304   13.121465110032
H   6.444685881429   6.344272434971   12.341771776679
H   5.124711499244   3.496486424644   14.560839959156
H   4.220693240306   4.760607082808   14.565940228025
H   3.542046759169   1.140542394901   14.571593801450
H   2.627726875980   14.501086142772   14.569785834312
H   2.588757734051   6.390233931528   14.540746888339
H   2.126686656351   5.143280565600   13.753677886693
H   5.612109481134   1.388819192354   10.881551364341
H   4.264314273113   1.415944360918   10.120154047549
H   5.688132501945   1.391487433667   15.339788017295
H   5.681294627090   1.389086489974   13.792465911001
H   0.373238824719   4.854255913748   16.769670501457
H   1.711604934332   4.865647019566   15.999505703056
H   0.409771217865   4.845353872657   12.277207723591
H   1.752915150467   4.850358882717   11.504860148147
H   3.503143306730   5.056584792973   10.026331688928
H   2.163163068700   5.083974567030   9.250162901116
H   2.122021842903   1.202205720830   9.316104123030
H   2.109732359367   1.199445685157   10.864930065972
H   6.507155318243   14.441750863243   12.324017763350
H   7.402109996820   1.097370431746   12.306913042836
H   7.423978492023   1.139284811460   16.825184012552
H   6.084940840306   1.157357313641   17.597898236351
H   6.009419210251   5.019729131175   17.562661977704
H   5.968926214691   5.007295640372   16.014400897739
H   1.324503462624   2.751011055268   16.785030349836
H   1.779016544815   1.487488226125   16.016643368468
H   8.111014615919   8.766510220815   12.253949779206
H   9.018770371850   10.026727161683   12.255343840276
H   13.461961350468   12.091826389808   10.848516183349
H   13.014634777708   10.819087464088   10.098368279965
H   14.306414200083   13.660942680031   12.310921670506
H   15.212431725773   12.409429481179   12.313950880128
H   13.444315955552   12.067109099021   13.745893630536
H   13.006562636526   10.806254949078   14.530287291602
H   9.856560566208   8.370658401821   15.122873745268
H   9.927948827189   8.445032337789   13.594180433774
H   9.965476627472   12.239800444405   15.387402722688
H   11.295697205395   12.296992552837   14.602354589905
H   13.433181103241   8.713838764269   10.910214635139
H   12.097540143671   8.715107029722   10.132762460793
H   12.077119125003   8.687778471935   14.546636511462
H   13.381396752417   8.715178915331   15.391462608493
H   9.553734601322   11.927321571070   17.621103008470
H   8.228284355741   11.922709551942   16.848716444913
H   9.564650516980   12.089642728373   13.104164262076
H   9.575507094149   12.127257422150   11.554619529443
H   9.978601080401   12.383167399474   9.290041080693
H   11.320065331875   12.353753861998   10.060993847811
H   9.927476236714   8.433889248442   10.862889279855
H   10.390498296888   7.170889745937   10.097201074954
H   14.269150715032   7.160883674447   12.352947588176
H   13.838498914680   8.416802355860   13.144105386259
H   15.187006429763   8.500732422857   16.824744745124
H   13.902188302151   8.524803133152   17.666478211603
H   13.819486811233   12.442943118641   15.977461747449
H   14.254238690439   13.726521408521   16.732984489298
H   9.096342279654   9.694888583891   16.810455670887
H   8.069111089980   8.544836750597   16.700166608622
H   1.761993324731   8.722522474501   11.514744984498
H   0.426015771626   8.727183656635   12.296191013562
H   5.630311764961   12.116592910406   10.881017225412
H   4.297794287665   12.145928345978   10.092571340273
H   6.075603674393   12.347925242825   13.136784028676
H   7.405284962075   12.349749908419   12.343474769833
H   4.325825988896   12.133970806426   14.611668739568
H   5.666203133517   12.119362808207   15.388728203640
H   2.174419428023   8.494916840957   13.755445082912
H   3.514413264652   8.497979475210   14.525804457624
H   2.180430604331   12.385113710929   13.792663232347
H   2.156239371350   12.397837111312   15.339067681942
H   5.201067851813   10.030114885745   10.044539384325
H   5.659711017004   8.766273823261   9.277605845522
H   5.621292554074   8.739838453427   15.341190220234
H   5.220724621196   10.028350359786   14.584986870797
H   0.419707046156   12.166408490729   16.806848333055
H   1.755739624824   12.145849011836   17.590205396440
H   1.356512753172   10.839487636041   12.295925637748
H   1.803425824630   12.103343384499   11.526000388710
H   2.591197218926   13.689813215178   10.064703360415
H   2.157761477619   12.435376673306   9.277334712282
H   2.639388386440   7.185214126545   10.061301066009
H   3.532951701426   8.448272800163   10.072845088767
H   5.987720613923   8.462473537265   11.530259061489
H   6.000634529733   8.474633097082   13.077697445876
H   5.989211502967   8.385317484492   17.605370897939
H   6.389358574580   7.114497677041   16.812152068549
H   6.075283103057   12.358171218690   17.617954753233
H   6.544694341387   13.608484479701   16.846499006156
H   1.337986999464   10.046815247122   16.774892210923
H   1.790033090897   8.782542014966   16.008992346505
