384

O   9.072712193117   1.697078273742   12.303087725743
O   12.958973436628   4.510984900064   10.046188864219
O   14.254560360371   5.384530414566   12.299740400971
O   12.930911139566   4.466457061673   14.521421042916
O   10.378298387843   0.761628610199   14.535494924126
O   10.328130090848   5.364897851241   14.421733002179
O   12.988927669320   1.763184249542   10.064819665015
O   12.944355815099   1.716624823021   14.542810786956
O   9.061939324501   4.515876151177   16.639727399741
O   9.014160189296   4.429247112211   12.241538267123
O   10.355526179409   5.393401882176   10.054912123606
O   10.401947410399   0.825636770445   10.086684673383
O   14.271782618677   0.844739804725   12.309566150363
O   14.265734803915   0.899364893009   16.798943239722
O   14.217531734738   5.444502792913   16.768027652838
O   9.114303914921   1.738448312860   16.748051850322
O   9.065784629096   9.139514224515   3.519376282606
O   13.057155012806   11.945591658006   1.127569463547
O   14.300202111528   12.814596313568   3.390769275953
O   12.950324397917   11.816874539713   5.573167633727
O   10.383181345179   8.157141632291   5.711253057577
O   10.360248630978   12.752088693107   5.587966164725
O   13.280986516227   9.236271146627   1.284795160786
O   12.978258930822   9.067798392753   5.626342691634
O   9.112478291480   11.825426039827   7.844284445749
O   9.063132139552   11.880318484719   3.362073857493
O   10.394370659905   12.680327518868   1.094607803791
O   10.837659352539   7.180951916222   -0.254516154916
O   14.414527096702   8.150232943469   3.492623676191
O   14.278626974408   8.175358307672   7.866071787543
O   14.257606187023   12.722439803918   7.799590551189
O   9.083034796287   9.088257695493   7.919786217759
O   1.392851182387   9.113598348211   3.390938627126
O   5.206867543243   11.778955644803   1.110947223284
O   6.458929255893   12.757254194140   3.346237507408
O   5.224263575568   11.823822131189   5.608096226434
O   2.636937705061   8.170574990217   5.642989192400
O   2.638539731103   12.742288222196   5.591063559046
O   5.210841864787   9.026550108789   1.105993737245
O   5.211655130247   9.087054461814   5.632683252021
O   1.325322332392   11.843333065113   7.827020741299
O   1.344802644939   11.851237350631   3.347039802509
O   2.627161357950   12.721430934122   1.088987772590
O   2.603345364491   8.172638729865   1.122456481983
O   6.486181889095   8.195028380933   3.380659651034
O   6.511756166508   8.151740541033   7.852509171824
O   6.518051719442   12.727534802826   7.855424939970
O   1.318513968118   9.098751171085   7.862969149089
O   1.352372314206   1.773085541209   3.349167884566
O   5.162503761897   4.519096826396   1.105343457680
O   6.415649585169   5.471750654694   3.359760176797
O   5.146205346222   4.535447402385   5.596225513527
O   2.630600976269   0.875738756513   5.602920580454
O   2.547225480363   5.430007550133   5.571258487050
O   5.215400986901   1.777043940565   1.088976381143
O   5.212276462163   1.792501338112   5.599279565553
O   1.276777995217   4.518569203592   7.815867718474
O   1.262402009003   4.510848264783   3.323863577502
O   2.582882002529   5.431753687563   1.091754253491
O   2.632508375361   0.853861303008   1.096176762928
O   6.505210901611   0.908034590994   3.346071900147
O   6.488061169194   0.869155389888   7.850904392751
O   6.483319585752   5.408104474545   7.836601001813
O   1.321684568357   1.777315323073   7.838200573152
O   9.110356701126   1.836142055603   3.293266047588
O   12.775617471377   4.650928628277   1.003350791796
O   14.174159482031   5.407091356461   3.271247615330
O   12.933130026091   4.545384032663   5.571384390409
O   10.370714050853   0.912637122213   5.552779570158
O   10.343435252679   5.442290272416   5.612282627506
O   12.965688683869   1.842580954275   1.100373036520
O   12.963303217393   1.808783495206   5.600497521197
O   9.064897465440   4.478190737706   7.826822990620
O   9.020472182224   4.564699461327   3.330766528123
O   10.273801356116   5.498121254981   0.759866585175
O   10.390750492587   0.852743814447   1.071329011660
O   14.274426614355   0.949787307272   3.347402488568
O   14.271752580757   0.857233711533   7.815829170769
O   14.235452060043   5.448728971689   7.810358723045
O   9.091341407315   1.742083348764   7.842953189884
O   1.310862674158   1.793840010210   12.342505755771
O   5.189718600212   4.469628048734   10.064720954282
O   6.449345756084   5.381098385357   12.331879092570
O   5.136281865476   4.459692942705   14.570083142768
O   2.619971272008   0.862551519803   14.570820563324
O   2.573552637357   5.426952519145   14.559415820458
O   5.173251418716   1.734457011552   10.097269895434
O   5.216366674035   1.721622009522   14.568152234481
O   1.280296597701   4.533897735002   16.794953637238
O   1.321269770738   4.534621167339   12.305910290844
O   2.606032028466   5.405772305495   10.042821923233
O   2.578176523268   0.862919922758   10.093962327577
O   6.485081709425   0.803068170414   12.321838711274
O   6.522554581032   0.804869256661   16.815683309078
O   6.469177443667   5.329623492004   16.774081371778
O   1.322252170251   1.788235650146   16.809222036837
O   9.027753471223   9.063435123118   12.234625875980
O   13.002607475503   11.781969630513   10.061193508557
O   14.293655777549   12.698193432188   12.311512565522
O   12.989072569794   11.768538829257   14.540101417608
O   10.383301253044   8.092921298298   14.368470616781
O   10.385202669182   12.611854208486   14.605865051248
O   13.000563903110   9.050914210547   10.118503255277
O   12.978830144975   9.021233354406   14.572558528881
O   9.118743365394   11.558473943605   16.845417617312
O   9.093499843617   11.792880433876   12.318813842211
O   10.418908578257   12.693586880288   10.089034186540
O   10.428665568711   8.133370594380   10.097358034029
O   14.290095703606   8.123780292833   12.345474733128
O   14.276266808298   8.185547251853   16.849465015046
O   14.280926531296   12.764891426111   16.757908713190
O   9.009518182053   8.751797564737   16.632863987613
O   1.327866461812   9.065202025756   12.303887210352
O   5.199400641935   11.807111498462   10.077483820068
O   6.497379634055   12.670469048232   12.332915776754
O   5.227624486842   11.796886991552   14.592781661664
O   2.609364770314   8.168946811362   14.550923108342
O   2.636301932327   12.724453454919   14.570293434828
O   5.190021453469   9.067099819075   10.063548133601
O   5.194848458825   9.065965567841   14.541769147459
O   1.319749263699   11.823366735286   16.794224147745
O   1.356946724809   11.802406352274   12.324575503986
O   2.618507007929   12.726967858701   10.071646414015
O   2.617447003319   8.147868388823   10.080814231396
O   6.458389412585   8.130621094125   12.302850627985
O   6.408330481010   8.075923035887   16.793358216719
O   6.543259413515   12.646074192932   16.826412829245
O   1.333087279225   9.083811805610   16.801666339935
H   9.554540100267   1.380306252245   11.530166531668
H   9.542128121634   1.362177195364   13.073926796894
H   12.050501347637   4.829463113576   10.028778320689
H   13.388642461293   4.855994697042   9.255647219136
H   13.783871101885   5.039029872744   13.065420445785
H   13.783796182767   5.071077526202   11.519782779890
H   12.013162362558   4.752664535165   14.486916707790
H   12.920369783144   3.503574250004   14.535469833822
H   11.295200664816   1.057862894178   14.539607329150
H   10.394600106666   14.401399141339   14.570954206201
H   9.871227407462   5.053032992408   13.631284029093
H   10.354076463913   6.327385564458   14.367356534492
H   13.440178164339   1.464483975600   9.267814597857
H   12.985261701819   2.725780382967   10.036191665182
H   13.427731814425   1.400294362330   13.771555759989
H   13.429452768430   1.420407091733   15.320260969019
H   9.466145881709   4.838480568770   15.821105509488
H   8.140323937206   4.806958462971   16.651143091185
H   8.099356826704   4.729423810922   12.269226599834
H   9.002630493311   3.465993903507   12.262528514669
H   9.876206604674   5.043972329175   10.812920864583
H   9.893014468982   5.071825434301   9.272894213103
H   11.312378162136   1.139006517340   10.074991309543
H   10.439280862406   14.464775638343   10.083165484711
H   15.169395226265   1.193687592321   12.303059768813
H   13.840670747071   1.176830313811   11.514579133301
H   15.173087203805   1.222688975904   16.821415195413
H   13.832131567550   1.233202824349   17.589924706389
H   13.761990658518   5.148370685983   15.974108313735
H   14.213249795015   6.408277357051   16.762142720113
H   9.556695082651   1.403531110227   15.959249976840
H   9.109247553864   2.694930132859   16.676165648008
H   9.085044352960   10.101277280131   3.449696311258
H   9.657488325294   8.824186106776   2.824892751743
H   13.484965585773   12.226601753690   0.312680417799
H   13.162651282676   10.988833968740   1.171521668363
H   13.843456414309   12.515561465578   2.595909200413
H   13.811145707798   12.458792142107   4.140014878997
H   12.932514451631   10.853732030842   5.575301315228
H   12.034612580113   12.113976472124   5.571583865722
H   9.918466794239   8.521144897384   4.949821484521
H   9.921000079520   8.488434286878   6.488570965298
H   10.364262322337   13.713595540897   5.563401341637
H   9.898461047913   12.461632053822   4.792557661049
H   13.746902791362   8.877436042212   2.051406783265
H   12.359390945500   9.008420916362   1.469597312637
H   13.409486631171   8.758526624886   6.429435614782
H   12.076273099871   8.730816283947   5.648699311583
H   9.534040265120   12.154377536498   7.042432810717
H   8.207376924902   12.153937455556   7.834686551266
H   8.157364751941   12.200977595692   3.315501834666
H   9.508840495595   12.155944327085   2.554402707021
H   10.406614789781   13.640713157673   1.070633473398
H   11.315504263151   12.401214859596   1.116149413866
H   10.023192856513   7.631184458297   -0.566100418737
H   10.985418340291   7.597484492254   0.625896844160
H   13.883509600036   8.446234555731   4.240986509282
H   14.305814691590   7.196581222674   3.429571361616
H   15.180641387210   8.513185005180   7.877486221103
H   13.851152446727   8.494844422455   8.667784222691
H   13.779233486191   12.393080577868   7.030346820067
H   13.805079104361   12.378836816414   8.576677635465
H   9.108884496307   10.050941862714   7.918259119808
H   9.564005013820   8.788660873828   8.698294328624
H   1.851055815528   8.798301387201   4.176951904348
H   0.499991542391   8.751987710885   3.450913662826
H   5.226917384828   10.816620443622   1.132992628847
H   5.652090299446   12.089838760813   1.906458537071
H   6.026324865187   12.452781135888   4.151053926177
H   6.451676723051   13.718921881704   3.368808424231
H   5.233993874825   10.860590586032   5.630692459924
H   5.679753433304   12.122055574221   6.402364576467
H   2.163915293650   8.471581060759   6.425852085931
H   2.587337242921   7.209052013218   5.635701203680
H   2.209637257555   12.420746696711   4.790544810019
H   3.540425967597   12.404343106955   5.581255075389
H   4.299446496795   8.716703631481   1.140175767060
H   5.644626165069   8.718732040983   1.909575809342
H   5.657177076336   8.745449448312   6.415374568423
H   4.308544490493   8.752515979183   5.661124839278
H   1.765362066712   12.164440066667   7.032731086940
H   0.416352115541   12.159688688389   7.791873961708
H   1.317006153128   10.888104685465   3.362595545848
H   0.432930524920   12.160752308667   3.366112218008
H   3.526719148878   12.378034537109   1.109145925693
H   2.191141729446   12.402763673762   1.886940520828
H   2.150447055597   8.516111021575   1.900780582161
H   2.143624566674   8.517074226911   0.349885284668
H   7.391395971372   8.524551194176   3.406302073867
H   6.053348375644   8.520693959325   4.177521682192
H   6.532927694212   7.188956835104   7.848846831041
H   7.426192057253   8.454016538499   7.875889730283
H   6.052842800812   12.427888710008   8.643618370183
H   6.493543802310   13.690068244438   7.870179426368
H   1.781320780761   8.799007528364   8.652259268089
H   1.337012022113   10.061496385011   7.870622486803
H   1.818349642948   1.432053118925   2.578876698531
H   1.820331289241   1.449893854791   4.126644551691
H   5.584664007465   4.865524850860   1.898460891989
H   4.257268563628   4.850255332872   1.109727605822
H   7.324340363378   5.161109477459   3.363807729768
H   6.458818351419   6.435710118628   3.366537163779
H   5.604896612293   4.885357427205   4.824986602684
H   5.621036922740   4.858594104130   6.369234990586
H   2.653882170490   14.514534185825   5.603998525729
H   3.546187888851   1.174505636787   5.602302489284
H   3.450736873367   5.097564841240   5.557930644827
H   2.114931230299   5.104292899134   4.774414436178
H   5.170564146487   2.738921797272   1.097124951664
H   4.305135369184   1.460846870445   1.091001838582
H   5.201989835356   2.755506377526   5.578425264564
H   5.673578237758   1.505273377154   4.804401489474
H   1.701008730302   4.850308682811   7.017045984994
H   0.372020251948   4.849877567489   7.803372397893
H   1.724443525995   4.817434519967   2.537082417510
H   1.309254945510   3.549040509438   3.313112561616
H   2.569780337347   6.395120511942   1.085611501353
H   2.119803885140   5.143078451171   0.298264603346
H   2.168166970395   1.159437368247   0.310329371234
H   2.620949434957   14.492718800224   1.070949567542
H   6.065091350603   1.225430687082   2.550190320951
H   7.410953913312   1.229421539146   3.309597120742
H   6.006970633812   1.189572953027   8.621038803866
H   6.029250394589   1.205995334198   7.074283589312
H   7.381440826987   5.060563553046   7.846412631361
H   6.048983436499   5.070232835613   8.626879117123
H   1.787360086245   1.480402153616   7.048883596532
H   1.310136711066   2.740010248492   7.807682645250
H   9.565107207625   1.509006091128   4.077695004865
H   9.570270415015   1.466796140213   2.531778397580
H   13.234399829542   4.962946382767   1.792466346631
H   13.307714720313   4.935574510704   0.249171469811
H   15.073635212311   5.065985335269   3.289928877509
H   13.746761077559   5.092435003587   4.074885630445
H   12.016375343033   4.839962904653   5.578974489888
H   12.917560632547   3.582679746281   5.594846091356
H   9.935667019713   1.212833337637   6.357228397784
H   11.278099033245   1.232944190315   5.591531242889
H   9.882480597117   5.180233012252   4.813240531225
H   10.346534493890   6.408044085696   5.625832449506
H   13.428037066066   1.565102858887   1.899505046753
H   12.927528195862   2.800704211427   1.110493929559
H   13.438889842887   1.500905725534   4.821495077862
H   13.437234761408   1.466088069296   6.365804576961
H   9.517201574609   4.790483915264   7.035518580680
H   9.093586513502   3.515701723191   7.808614539825
H   9.439350953088   4.926522459897   2.560057480247
H   9.083592431576   3.602502018759   3.270457676281
H   11.212883498675   5.214995320131   0.803622493452
H   9.860460511039   5.110664072595   -0.048763754629
H   11.291066814496   1.191204616305   1.059107749620
H   9.965348755043   1.170506959783   0.268925937437
H   15.195925675230   1.230587452886   3.349353033027
H   14.288347451847   14.588023764912   3.364150642090
H   14.283916788290   14.495881374580   7.813642250108
H   15.189342228970   1.149217831921   7.820996641868
H   14.242613620322   6.412585110459   7.803538897429
H   13.775736905942   5.163849978034   7.013247772287
H   9.530756930312   1.404931596712   8.630061931106
H   8.183298699811   1.422399669141   7.869135594215
H   1.330555391829   2.756498949940   12.358358309077
H   1.775537084380   1.489544442618   13.129127595828
H   5.197221237423   3.506694253908   10.096265004715
H   5.625257482800   4.774947177058   10.866895174466
H   5.982592794852   5.090131749505   13.121602003798
H   6.444790864986   6.344290537259   12.341784787074
H   5.124954807283   3.496538502324   14.560996019099
H   4.221129437688   4.760779563022   14.566345455471
H   3.542025071042   1.140537293313   14.571526283779
H   2.627738505140   14.501051402837   14.569770227897
H   2.588848473037   6.390262542773   14.540833829564
H   2.126983431769   5.143246294574   13.753777592897
H   5.612094861741   1.388816504389   10.881560106107
H   4.264299093766   1.415943980635   10.120152009867
H   5.688095268181   1.391484637355   15.339732582175
H   5.681260675645   1.389169400068   13.792422242903
H   0.373089301215   4.854421131205   16.769832164757
H   1.711354185411   4.865770004503   15.999529839588
H   0.409922873378   4.845336418549   12.277254605014
H   1.753029912460   4.850344931984   11.504866787841
H   3.503180922090   5.056579623778   10.026316812639
H   2.163193916182   5.083936695795   9.250157750808
H   2.121982516575   1.202162949717   9.316069357800
H   2.109712293836   1.199407187423   10.864894261391
H   6.507163251360   14.441769694151   12.324019765662
H   7.402143521590   1.097353034525   12.306917176456
H   7.424045834823   1.139382753580   16.825144837714
H   6.084987512013   1.157218423964   17.597784803489
H   6.010156258627   5.019529159155   17.562778438057
H   5.969363971788   5.007063836826   16.014531621580
H   1.324572610397   2.750943847882   16.784989342455
H   1.779122915307   1.487441163278   16.016569799062
H   8.111197516459   8.766412022773   12.254488080954
H   9.018936691487   10.026647377625   12.255883563934
H   13.461943230890   12.091916753576   10.848429030983
H   13.014579167278   10.819161443500   10.098321578303
H   14.306419467122   13.660985028733   12.310865958752
H   15.212437144107   12.409473551051   12.313887512407
H   13.444254911712   12.067009823405   13.745680761834
H   13.006521247364   10.806205420931   14.530185128525
H   9.855954708164   8.369709142484   15.122859164379
H   9.927982153118   8.444932946566   13.594328126258
H   9.965631788343   12.238913519525   15.387645126955
H   11.295694190053   12.296801475644   14.602464051378
H   13.433150750975   8.713919082815   10.910237453871
H   12.097481115146   8.715187581170   10.132825776356
H   12.077020792010   8.687687038080   14.547004257250
H   13.381241167415   8.715341756914   15.392142181035
H   9.554128317998   11.925217144544   17.621410692213
H   8.228735213120   11.921117850192   16.849044164296
H   9.564614863319   12.089608819947   13.104323019831
H   9.575535531367   12.127180683551   11.554758154566
H   9.978530732332   12.383207975268   9.290086371323
H   11.320006669419   12.353796633000   10.060998067160
H   9.927543968958   8.433881026344   10.863236909475
H   10.390484756961   7.170943261136   10.097417405742
H   14.269199488053   7.160909563042   12.352966386466
H   13.838597801600   8.416720392505   13.144286562901
H   15.186453781256   8.500847962105   16.825604791796
H   13.901934100497   8.525229388916   17.667651482756
H   13.819552513878   12.442954667520   15.977216749450
H   14.254282840084   13.726564763859   16.732705074767
H   9.094655405166   9.693275996519   16.810638256306
H   8.068306433544   8.542710307264   16.700756221895
H   1.762069566559   8.722534937239   11.514751771413
H   0.426073172852   8.727225538995   12.296159700672
H   5.630267853309   12.116598787573   10.881022170860
H   4.297759573250   12.145908310487   10.092550817360
H   6.075583519199   12.347926793319   13.136764597069
H   7.405269378039   12.349718556450   12.343475099154
H   4.325839321888   12.133972595569   14.611651383196
H   5.666271620445   12.119132047538   15.388659511298
H   2.174175378190   8.494859111730   13.755519100971
H   3.514126419421   8.498075719043   14.525865162497
H   2.180439462664   12.385125367102   13.792649795659
H   2.156291086735   12.397712927172   15.339063419903
H   5.201073088638   10.030091385785   10.044607345172
H   5.659668061260   8.766281649369   9.277613912532
H   5.620776536065   8.739736386928   15.340920044748
H   5.220458488562   10.028358787828   14.584722230260
H   0.419793269052   12.166268777839   16.806736191376
H   1.755756363474   12.145601182954   17.590178201917
H   1.356559682131   10.839524865818   12.295915966856
H   1.803423124154   12.103364484283   11.525952093341
H   2.591165085397   13.689792504827   10.064619937933
H   2.157699639351   12.435356832433   9.277260471607
H   2.639386057830   7.185225061422   10.061268521565
H   3.532944557570   8.448277872081   10.072843752599
H   5.987957950268   8.462460076852   11.530230872707
H   6.000614954245   8.474600796240   13.077641262593
H   5.988307896961   8.384882675966   17.605310818300
H   6.388259552248   7.113857502817   16.812168784253
H   6.075500309271   12.357704998145   17.617841244282
H   6.545180751029   13.607885239223   16.846423808834
H   1.337516378400   10.046554528840   16.775005905224
H   1.789424012958   8.782250450577   16.009110820748
