384

O   9.072860267573   1.696928680501   12.303143828040
O   12.959122365095   4.510819687449   10.046112885884
O   14.254720980136   5.384575529493   12.299679336922
O   12.931178966738   4.466798044953   14.521357391864
O   10.378564866756   0.761167594291   14.535144456990
O   10.328653116658   5.365084173466   14.420950560846
O   12.988890417060   1.763088729971   10.064642208909
O   12.944334793597   1.716798182449   14.542724475046
O   9.063144858337   4.516287932206   16.638727398656
O   9.013990136968   4.428952914598   12.241339375186
O   10.355799547999   5.393631837831   10.055570729162
O   10.401921240501   0.825753608237   10.086544362459
O   14.271792758713   0.844908098404   12.309404400373
O   14.265850775558   0.899682221723   16.798919997577
O   14.216671385409   5.445428891267   16.768391177864
O   9.114921712847   1.738115046863   16.747914842273
O   9.067281764372   9.138959843922   3.519710754125
O   13.057727164694   11.946675653522   1.127624809349
O   14.300357929416   12.815012698980   3.390744768099
O   12.950170418441   11.816679217904   5.572692572162
O   10.383811077051   8.157226097808   5.712331498090
O   10.360188679307   12.752524980536   5.588073095069
O   13.282536512068   9.237409538238   1.288144155524
O   12.978758511618   9.067572370938   5.626180653991
O   9.112315772854   11.825630471770   7.844285830287
O   9.062547150695   11.880187904919   3.362897072227
O   10.394348731431   12.679231139398   1.094972231163
O   10.837286485406   7.179765269609   -0.259202008336
O   14.417403654779   8.148968045699   3.494565943866
O   14.278450532010   8.175315222333   7.865906975714
O   14.257326114078   12.722357993966   7.799291894960
O   9.082754421771   9.088630066648   7.920218965834
O   1.394895558972   9.113585588131   3.391156686048
O   5.206763715426   11.778741459965   1.110670910155
O   6.458271652778   12.757677808654   3.346181182450
O   5.223863805306   11.823754436284   5.607992381363
O   2.637919186008   8.170462523947   5.643398907622
O   2.638070711867   12.742167761528   5.590954519765
O   5.210891477934   9.026433615997   1.106022788801
O   5.212516082734   9.086910809754   5.631927304805
O   1.324941298163   11.843252018943   7.826843783913
O   1.344621346438   11.851284486768   3.346810092718
O   2.626949728285   12.721177540637   1.088728366836
O   2.603804499035   8.172680741563   1.122289937882
O   6.487537509938   8.195338210220   3.380044642827
O   6.511579608201   8.151829051691   7.852339074678
O   6.517819888809   12.727514324893   7.855292875494
O   1.318314493701   9.098744890314   7.862786032376
O   1.352253354294   1.772803211493   3.348962840866
O   5.163090964930   4.519512471664   1.104964696391
O   6.414964975310   5.472168096281   3.359996249963
O   5.145462341907   4.535517200409   5.596522808749
O   2.630365389086   0.875539422601   5.602950823088
O   2.546376701471   5.429925110681   5.570924584528
O   5.215409585134   1.777188484918   1.088797823122
O   5.212016625353   1.792526283743   5.599323600466
O   1.276729322183   4.518360152628   7.816033663817
O   1.261458940302   4.510512465504   3.323236114054
O   2.583324768962   5.431731714453   1.091489776402
O   2.632651769853   0.853620987579   1.096134699178
O   6.505613481591   0.908861595249   3.345964965592
O   6.488004820192   0.869169601343   7.850858135070
O   6.483143417161   5.408163818024   7.836628433239
O   1.321449211301   1.777120146474   7.838194549046
O   9.110850028472   1.838184134580   3.292692858509
O   12.772573794194   4.652938251771   1.002007422635
O   14.172865004873   5.406341303272   3.269840020159
O   12.933557814705   4.545277546166   5.571177491128
O   10.370363574268   0.913288678549   5.552260548387
O   10.344467767804   5.442704667059   5.614385442091
O   12.965476568502   1.843812627363   1.100340966689
O   12.963163667319   1.808637130297   5.600315575853
O   9.064825473952   4.478358111404   7.827912562659
O   9.020505832982   4.566873722524   3.332515478125
O   10.272052553100   5.499554240214   0.758413759740
O   10.390871565087   0.852675016440   1.071262311569
O   14.274170933121   0.950036395981   3.347165569695
O   14.271511420602   0.857088251705   7.815690285184
O   14.235569796888   5.448629509396   7.810306271927
O   9.091274816165   1.742278014415   7.842917382990
O   1.310942460425   1.793803889169   12.342387921455
O   5.189846665325   4.469634533643   10.064766508311
O   6.449430540871   5.381175317517   12.331945536270
O   5.136860436886   4.459990417329   14.570602802636
O   2.620007825958   0.862480235417   14.570673900140
O   2.574125222602   5.427045699050   14.559478806952
O   5.173247293292   1.734492992196   10.097223101922
O   5.216440713345   1.721822026731   14.568173577141
O   1.280184308507   4.534112308976   16.794872570729
O   1.321631144802   4.534628058730   12.305922893378
O   2.606215440306   5.405798191820   10.042720140670
O   2.578193181282   0.862868532735   10.093837912448
O   6.485156592146   0.803183181082   12.321741634100
O   6.522768684853   0.804275954535   16.815580294588
O   6.470076331197   5.329564988965   16.774225122700
O   1.322534760052   1.788141542697   16.809149137228
O   9.027959271030   9.063509659893   12.235210032335
O   13.002462468752   11.782140463684   10.061012626568
O   14.293692121344   12.698350617989   12.311167995482
O   12.989071303388   11.768461145040   14.539558827248
O   10.383110161810   8.092861812215   14.368550999525
O   10.385115077573   12.610951738568   14.606592877647
O   13.000443359878   9.051025041102   10.118436701444
O   12.978599499473   9.021170899090   14.573758899506
O   9.118820696902   11.554798553524   16.846263606806
O   9.093556170230   11.792803886012   12.319118911037
O   10.418702367055   12.693587150293   10.089174963019
O   10.428486945769   8.133512663672   10.097706189694
O   14.290077022839   8.123848628402   12.345642172259
O   14.274631108664   8.186529489109   16.852099840105
O   14.281156221874   12.765062869677   16.757242177097
O   9.006626255744   8.748665008793   16.633063057911
O   1.328041457750   9.065302295689   12.303777535718
O   5.199305522711   11.807135966296   10.077446757070
O   6.497362510716   12.670552639922   12.332785845211
O   5.227700079183   11.796798461715   14.592541632878
O   2.608834405297   8.169018022199   14.551216151604
O   2.636394353188   12.724352598806   14.570251249556
O   5.190149563896   9.067072559381   10.063693688554
O   5.194595493744   9.065939850845   14.541364601519
O   1.319780235993   11.822748023486   16.794024946215
O   1.357003566020   11.802520319908   12.324411711859
O   2.618419679510   12.726953806629   10.071326046821
O   2.617432672019   8.147897852800   10.080604031652
O   6.458798613927   8.130747385076   12.303108218317
O   6.405951037732   8.074843910424   16.793326609660
O   6.544256454017   12.645016598619   16.826455932298
O   1.331892232984   9.083373641319   16.802100578887
H   9.554708817782   1.380244257221   11.530185430554
H   9.542305754435   1.361952495191   13.073920474824
H   12.050696421499   4.829424365457   10.028911630316
H   13.388738343628   4.855876965975   9.255554704326
H   13.784092701376   5.039045181903   13.065393855100
H   13.783971666423   5.071021144213   11.519753833237
H   12.013459469661   4.753059995265   14.486417042892
H   12.920526893367   3.503925861112   14.535507297292
H   11.295504502492   1.057366481409   14.539474877342
H   10.394660646248   14.401002924048   14.571492868388
H   9.871691717716   5.053090732704   13.630628911616
H   10.354522945615   6.327625811876   14.366584736647
H   13.440086423296   1.464335619317   9.267619030851
H   12.985296985935   2.725687352277   10.036004901726
H   13.427717642726   1.400619574256   13.771415275871
H   13.429507341960   1.420571376527   15.320113908639
H   9.467033788016   4.837660599874   15.819441908859
H   8.141126828980   4.806043163795   16.649362022491
H   8.099213860786   4.729205883108   12.269115455113
H   9.002495378976   3.465697486984   12.262491418233
H   9.876535304206   5.044004563686   10.813537778133
H   9.893181304440   5.072012273446   9.273625945805
H   11.312375949895   1.139062463852   10.074829308810
H   10.439173300969   14.464891118106   10.083106637488
H   15.169412581656   1.193818049170   12.302868158881
H   13.840689135223   1.176924047232   11.514373127630
H   15.173244505865   1.222852885873   16.821310486393
H   13.832259641377   1.233910060056   17.589734468550
H   13.761673786186   5.149407633409   15.974108389863
H   14.212198257332   6.409230183222   16.763134527739
H   9.556824785973   1.402991593852   15.958901806606
H   9.109627680818   2.694538685128   16.675752917831
H   9.085964249710   10.100735485564   3.450770141857
H   9.659682818804   8.824464025353   2.825510909094
H   13.485430889750   12.227176065459   0.312520025276
H   13.163458082992   10.989984863254   1.172547031822
H   13.843606154751   12.516455537829   2.595690834969
H   13.811031582522   12.459057712632   4.139731634102
H   12.932392214779   10.853543152512   5.574752559714
H   12.034478696988   12.113827338249   5.571391787841
H   9.919183246352   8.520826863185   4.950640779338
H   9.921457762577   8.488628459962   6.489491882701
H   10.364099585364   13.714024976223   5.563343555666
H   9.898165494983   12.461916753905   4.792861218936
H   13.748929924636   8.878527556242   2.054593985791
H   12.360989718651   9.008841208091   1.472224759521
H   13.409697434158   8.758508846254   6.429506052065
H   12.076808470897   8.730523257363   5.648432185142
H   9.534013460028   12.154725138191   7.042560041668
H   8.207225842882   12.154162431514   7.834621170952
H   8.156730645880   12.200667318882   3.315904895755
H   9.508310009623   12.155337807083   2.555099709786
H   10.406181000142   13.639577883673   1.070669290386
H   11.315672199654   12.400788989504   1.116979343757
H   10.022004668234   7.630076033116   -0.568893793649
H   10.988488994741   7.597260028091   0.619926665917
H   13.885559664185   8.444950726384   4.242321943147
H   14.307296329053   7.195577235514   3.430180091973
H   15.180444084583   8.513197034007   7.877246158594
H   13.850969367889   8.494878399769   8.667571495807
H   13.779021825292   12.392921136918   7.030038621646
H   13.804775506409   12.378843361399   8.576402379061
H   9.108550626197   10.051327422110   7.918727247740
H   9.563515659422   8.789036773415   8.698846497507
H   1.853524687869   8.798608789990   4.177075173381
H   0.502305553783   8.751387691717   3.451541960779
H   5.226620896582   10.816416850318   1.133069711040
H   5.651739622461   12.089824670222   1.906237684491
H   6.025635306845   12.453263634538   4.151001699344
H   6.451471125845   13.719330705186   3.368841407235
H   5.233878447690   10.860527373831   5.630415163686
H   5.679250851835   12.121978055672   6.402321316490
H   2.164578752463   8.471690048367   6.425981406980
H   2.587550964996   7.208983498925   5.635895121628
H   2.209194996392   12.420778273775   4.790352474296
H   3.539920640619   12.404132278945   5.581186479732
H   4.299481254587   8.716599123672   1.140284135500
H   5.644991606542   8.718679356711   1.909458101560
H   5.657925875957   8.745500277487   6.414782115052
H   4.309443065059   8.752285731161   5.660483365653
H   1.764954895052   12.164360357923   7.032541553962
H   0.415984725472   12.159668524844   7.791721397431
H   1.317192181704   10.888152204392   3.362434397841
H   0.432675168305   12.160606835729   3.365950482943
H   3.526501640081   12.377780091317   1.108981121278
H   2.190859732415   12.402729599567   1.886740872061
H   2.151243833043   8.516183742871   1.900804634150
H   2.143566803914   8.516964659464   0.349964078634
H   7.393000205654   8.524243043510   3.405895161456
H   6.054708886572   8.521052235598   4.176860354606
H   6.532751530823   7.189046759519   7.848686461505
H   7.425993768308   8.454133354938   7.876000365614
H   6.052707013371   12.427892106963   8.643546458447
H   6.493393526601   13.690057611653   7.870064784104
H   1.781146301458   8.799048008531   8.652076761801
H   1.336723259064   10.061494530477   7.870433558965
H   1.818265795722   1.431676097616   2.578758081298
H   1.820095992155   1.449620894257   4.126525513449
H   5.584861126730   4.865858771291   1.898339604892
H   4.257779753033   4.850489789226   1.109110513863
H   7.323626411843   5.161486249795   3.364888751093
H   6.458475746881   6.436122315582   3.366543174589
H   5.604016582087   4.885601853430   4.825289603727
H   5.620448547512   4.858506901555   6.369500864613
H   2.653570221086   14.514338229549   5.603983929088
H   3.545974163781   1.174238463528   5.602291088075
H   3.449825126362   5.097303945823   5.557647187660
H   2.113942713192   5.104194783810   4.774183213308
H   5.170642295910   2.739047641049   1.096830676204
H   4.305140322534   1.460989101955   1.090950938510
H   5.201473379154   2.755534848652   5.578682916919
H   5.673494547917   1.505601716924   4.804444234533
H   1.700715064639   4.850095551658   7.017087507863
H   0.371976162474   4.849711227249   7.803708231710
H   1.723712518675   4.817174730004   2.536651287686
H   1.308560569066   3.548708056624   3.312523560784
H   2.570160165164   6.395104500592   1.085431828147
H   2.120119914032   5.143155274648   0.298060694819
H   2.168328090684   1.159208312801   0.310286203622
H   2.621044390967   14.492477445413   1.070885597191
H   6.065332169054   1.226109058078   2.550111792031
H   7.411198649073   1.230684649678   3.309458973188
H   6.006972520312   1.189605856753   8.621010284793
H   6.029143869192   1.206030028806   7.074268144881
H   7.381291357142   5.060683698047   7.846559175189
H   6.048866583303   5.070356907140   8.626966820702
H   1.787096820544   1.480220509108   7.048852772612
H   1.309937947810   2.739817153846   7.807719349811
H   9.565291467932   1.510913248603   4.077128069016
H   9.570662856083   1.468235169938   2.531347678865
H   13.231570344644   4.964374290322   1.791145774695
H   13.305676845594   4.936704986197   0.248226788894
H   15.072152120224   5.064780796961   3.288016149666
H   13.745708124305   5.091684505353   4.073620415334
H   12.016857735348   4.840021814239   5.579578995369
H   12.917914718982   3.582564288487   5.594668771587
H   9.935395237437   1.213409692970   6.356779279001
H   11.277839452732   1.233333815479   5.591118670875
H   9.882877198980   5.181020099379   4.815594247864
H   10.347593586626   6.408465010793   5.628095769053
H   13.428123998784   1.566562710719   1.899376814725
H   12.926686541760   2.801878623319   1.110287349428
H   13.438793179029   1.500821032574   4.821309238446
H   13.437084560439   1.465913917992   6.365614701906
H   9.517498899030   4.790755646564   7.036865965099
H   9.093364616233   3.515839018045   7.809534972188
H   9.439254911882   4.929963251453   2.562352615373
H   9.084292932499   3.604778840079   3.271054613516
H   11.211019062889   5.216267083529   0.802496633851
H   9.860001146934   5.111747959898   -0.050755984043
H   11.291174176700   1.191176094525   1.058978411577
H   9.965566482734   1.170106459505   0.268689369230
H   15.195735368968   1.230601158780   3.349130367757
H   14.287860685618   14.588261011638   3.363946460721
H   14.283640000839   14.495735994937   7.813392660625
H   15.189108202056   1.149048319100   7.820882255054
H   14.242663162718   6.412480928797   7.803382536743
H   13.776222795005   5.163653744245   7.013009744781
H   9.530713099481   1.405003939467   8.629959072568
H   8.183227555766   1.422621613561   7.869117257414
H   1.330745698786   2.756461976205   12.358275066777
H   1.775557205328   1.489424479386   13.129007848205
H   5.197297943936   3.506697461663   10.096288523924
H   5.625283818186   4.774937450417   10.866995834319
H   5.982908474531   5.090337397920   13.121837415796
H   6.445021662480   6.344373653233   12.341804446175
H   5.125461791151   3.496853191021   14.561431927763
H   4.221691039193   4.761091981787   14.566803207186
H   3.542030413307   1.140523419937   14.571406957795
H   2.627841007712   14.500976299938   14.569710241459
H   2.589245248144   6.390368579941   14.540902240667
H   2.127639798644   5.143266896902   13.753824905905
H   5.612095405379   1.388864376629   10.881510795419
H   4.264290112498   1.415975128099   10.120082933335
H   5.688210474581   1.391481979615   15.339626189817
H   5.681277153135   1.389514127925   13.792342117128
H   0.373076773703   4.854851995589   16.769862701270
H   1.711333213108   4.865919399438   15.999480880340
H   0.410285307506   4.845347942873   12.277285274713
H   1.753339412741   4.850350327564   11.504853021368
H   3.503352826561   5.056600072468   10.026232223140
H   2.163336220958   5.083860056070   9.250106543896
H   2.121924775257   1.202083497085   9.315966456546
H   2.109751542182   1.199326392702   10.864788422079
H   6.507211588095   14.441882387266   12.323981190265
H   7.402239636221   1.097414549388   12.306935016685
H   7.424128913167   1.139102908155   16.824818079861
H   6.085159549664   1.156847820648   17.597553835705
H   6.011276645292   5.018902222674   17.562880248100
H   5.970743815867   5.006541623891   16.014561485915
H   1.324768499510   2.750828666921   16.784910203346
H   1.779326413634   1.487314948808   16.016456758512
H   8.111398063671   8.766434545317   12.255005378857
H   9.019096549198   10.026735979717   12.256325551739
H   13.461894430005   12.092128893447   10.848171194277
H   13.014474898055   10.819333138193   10.098181190434
H   14.306464909162   13.661152153217   12.310653943901
H   15.212465527190   12.409598144136   12.313653222886
H   13.444159478123   12.066826379936   13.745087080651
H   13.006568247208   10.806111436674   14.529798494826
H   9.855028928596   8.368692353155   15.122732151354
H   9.927782184747   8.445002056992   13.594484855002
H   9.965897785734   12.237310581077   15.388187815573
H   11.295770802381   12.296299250768   14.602804625197
H   13.433079384916   8.714085978092   10.910146479148
H   12.097342687463   8.715337983446   10.132905787480
H   12.076768475455   8.687717957803   14.547776898173
H   13.380397820776   8.715875097240   15.393900712014
H   9.554595674609   11.921138961492   17.622180388500
H   8.229297073235   11.918597490781   16.849821618721
H   9.564560800222   12.089537365787   13.104671408985
H   9.575609969876   12.127107775462   11.555061316991
H   9.978320319259   12.383389481572   9.290167727788
H   11.319856948675   12.353967270316   10.060934579342
H   9.927588476190   8.433988288916   10.863719291868
H   10.390507012123   7.171059948645   10.097885089933
H   14.269348250153   7.160971037769   12.352930720850
H   13.838784049833   8.416522567438   13.144638750123
H   15.184986699306   8.501188929775   16.827769919738
H   13.901266006107   8.526490659530   17.670651464136
H   13.819762181806   12.443049943300   15.976585756201
H   14.254534450589   13.726721630394   16.731976226957
H   9.092655429081   9.689975615340   16.811061826203
H   8.065103793098   8.540728238743   16.700711301470
H   1.762283748095   8.722597375428   11.514673320397
H   0.426258313125   8.727341233061   12.296047525205
H   5.630146609828   12.116704564498   10.880965121069
H   4.297653874841   12.145915310734   10.092429907121
H   6.075576252121   12.348050677124   13.136653649834
H   7.405241350992   12.349777962192   12.343416823215
H   4.325951338476   12.133981170144   14.611582025979
H   5.666561387125   12.118684116753   15.388424014093
H   2.173803703508   8.494835086832   13.755688201739
H   3.513531643081   8.498305015078   14.526256867204
H   2.180532901143   12.385153056479   13.792547459686
H   2.156432812677   12.397406998455   15.338966423423
H   5.201069471605   10.030063837249   10.044699868376
H   5.659540612859   8.766292843396   9.277600807312
H   5.620011391599   8.739590683608   15.340760271267
H   5.220071173200   10.028313507007   14.584551383925
H   0.419977066046   12.166059959450   16.806276680408
H   1.755775168458   12.145059758077   17.589947783601
H   1.356679106628   10.839638079099   12.295791031585
H   1.803430980907   12.103449902095   11.525747778783
H   2.591098083570   13.689782426395   10.064323215170
H   2.157527958577   12.435342983641   9.276991611714
H   2.639413359477   7.185257129283   10.061079016530
H   3.532925160097   8.448325205419   10.072708493005
H   5.988527587751   8.462470906177   11.530351689304
H   6.000556339082   8.474473308456   13.077758439843
H   5.986505250189   8.384036416475   17.605499380541
H   6.386418247464   7.112731584170   16.812263132611
H   6.075998898909   12.356855929869   17.617675398611
H   6.546179250702   13.606797329355   16.846321070527
H   1.336506420025   10.046120990711   16.775277673269
H   1.787999628932   8.781632850377   16.009499462950
