384

O   9.073475233957   1.697210077948   12.303539911357
O   12.959261227855   4.510484151779   10.045757034099
O   14.255392737878   5.384718386816   12.299348017067
O   12.932242506454   4.467654304383   14.520809454267
O   10.379344149087   0.760983402529   14.535502852533
O   10.330571656439   5.365105453362   14.420914046877
O   12.989016635353   1.762854623629   10.064188650411
O   12.944915471713   1.717395385504   14.542421224498
O   9.064522811728   4.513994054520   16.636921320180
O   9.014599880648   4.428939880621   12.242210334186
O   10.356358781036   5.393890800516   10.057045989205
O   10.401968024569   0.826117542423   10.086627975780
O   14.272343955593   0.845309188537   12.308923121031
O   14.266259089607   0.899336302529   16.798610531781
O   14.216724120882   5.445496601784   16.767759246278
O   9.114759419603   1.737314276835   16.747805213191
O   9.067656296534   9.138852124016   3.521046002427
O   13.057211459916   11.947426387835   1.127269510311
O   14.300012144237   12.814877818688   3.390506776488
O   12.949230610084   11.815971717592   5.572355369757
O   10.383420515283   8.156949489942   5.713953484212
O   10.359416473174   12.752766817363   5.588743637681
O   13.282379689741   9.238627175552   1.289828657586
O   12.978705287164   9.066521385020   5.625826054337
O   9.111582631200   11.826109992469   7.844847706771
O   9.061293997510   11.879619909724   3.363455923715
O   10.393691983914   12.678444385062   1.096684949920
O   10.839404819824   7.180127896699   -0.260674366609
O   14.417264307186   8.147597035330   3.494809142956
O   14.278042436770   8.175092891290   7.866010737730
O   14.256238258369   12.722228518028   7.798496196287
O   9.081743876846   9.088997967924   7.921307718654
O   1.394649145710   9.113068146895   3.391051307181
O   5.206427621215   11.778560274822   1.110624211272
O   6.457562358303   12.757758994292   3.346599343619
O   5.222796959827   11.823796497638   5.608415992375
O   2.637994255736   8.170150346736   5.643210857362
O   2.637225863094   12.741852514952   5.590683700662
O   5.209956873587   9.026287635641   1.106036815141
O   5.212426229288   9.086853148163   5.631908874253
O   1.323714333249   11.843096281686   7.826338411075
O   1.344259251768   11.850917018288   3.346142957735
O   2.626615581780   12.720651529031   1.087722003406
O   2.603455221020   8.172533504437   1.122549000232
O   6.487115514069   8.195562286183   3.380086158328
O   6.511218891610   8.151574504915   7.852479318272
O   6.517115081407   12.727619855940   7.855315861551
O   1.317872147977   9.098623454051   7.861996970289
O   1.352381382707   1.772026052515   3.348527919636
O   5.164200403678   4.519803465560   1.104739878268
O   6.414870017061   5.472824541754   3.360381381062
O   5.144912647858   4.535025077574   5.596777876067
O   2.629969638740   0.875077506785   5.603001918909
O   2.545222708091   5.429300603752   5.570802012674
O   5.216002230265   1.777309447976   1.089054746668
O   5.211557150249   1.792273902214   5.599609175863
O   1.276486088986   4.517819941260   7.816426051542
O   1.260430236268   4.510154576986   3.322071974853
O   2.584044022572   5.431543900738   1.090801896367
O   2.633388842727   0.853204994207   1.095544082400
O   6.505856386441   0.909715998610   3.346541783171
O   6.488133529548   0.869141344130   7.850650998276
O   6.482925604411   5.407990634196   7.836736698208
O   1.321036527347   1.776653887139   7.838202149567
O   9.111214731843   1.841442019461   3.292792369857
O   12.771953022157   4.651584041013   1.000678243236
O   14.172481674938   5.405100485699   3.268201990916
O   12.934062121851   4.544984037493   5.570263481616
O   10.369853729663   0.913711751651   5.551959218887
O   10.344973500219   5.443308224374   5.616498418961
O   12.965569442907   1.843771718111   1.099840731202
O   12.963103668484   1.808394191148   5.600132332274
O   9.064509319779   4.478550620768   7.829725096178
O   9.021475211937   4.569983916859   3.333389213948
O   10.271112563261   5.502366730526   0.757382345741
O   10.390541647084   0.853817744408   1.072451966449
O   14.273859837894   0.949774446915   3.347259852738
O   14.271288511917   0.856787895253   7.815325988563
O   14.235727782246   5.448387687738   7.809810042839
O   9.091223851378   1.742738146080   7.843274851096
O   1.311674929784   1.793625564347   12.342351098808
O   5.190342264730   4.469601777000   10.064916457945
O   6.450316538595   5.381316259322   12.332052097024
O   5.137900947758   4.460607943102   14.571201184869
O   2.620471908905   0.862533175860   14.570738486232
O   2.575449846197   5.427551369319   14.559204358581
O   5.173456866749   1.734566818758   10.096867982552
O   5.217060315948   1.722275488445   14.568112743576
O   1.279969030199   4.534693199636   16.794356384511
O   1.322762003469   4.534493136524   12.305609989741
O   2.606836471690   5.405803548192   10.042255358217
O   2.578397664040   0.862954350547   10.093592049702
O   6.485659542431   0.803672440840   12.321508197156
O   6.523076330916   0.804193256363   16.815567327456
O   6.471370150072   5.328945486055   16.773603556511
O   1.322911945649   1.788602439103   16.809161052966
O   9.028464366952   9.063609208756   12.235723657525
O   13.002074273315   11.782105723709   10.060438378777
O   14.294294485639   12.698566514717   12.309972284965
O   12.989376632886   11.767844638327   14.538038641114
O   10.383001527536   8.093407884981   14.368426071534
O   10.385718510817   12.610171945559   14.607630889008
O   13.000301568122   9.051060392427   10.118880718372
O   12.978015622538   9.020903734207   14.574920815045
O   9.117781529559   11.553732705061   16.846557424350
O   9.093933778174   11.792709299100   12.319650302782
O   10.418415163422   12.693899082197   10.089307925417
O   10.428344451884   8.133698134176   10.098042266544
O   14.289896735084   8.124144877393   12.346213922687
O   14.273640377478   8.186894776345   16.854271697131
O   14.281204885525   12.764739874806   16.755938784558
O   9.005802571993   8.747970543866   16.633206037361
O   1.327871035219   9.065384042867   12.303172030905
O   5.198966732473   11.807169828295   10.077392469631
O   6.497764824338   12.670988936161   12.332409541988
O   5.228180218382   11.796796672120   14.592148975982
O   2.607951782503   8.169658044780   14.551460268092
O   2.636774057910   12.724229416981   14.569915396245
O   5.190268534749   9.066951894770   10.064153507114
O   5.194008328564   9.065700055991   14.542248826014
O   1.319359119025   11.821817726680   16.793107556529
O   1.357676559966   11.802626930563   12.323720390375
O   2.618102698713   12.727124379878   10.070261308303
O   2.617303387021   8.147985543817   10.079760953037
O   6.459157363120   8.130877528438   12.303867373690
O   6.405708299644   8.073720934436   16.793232247503
O   6.544951909071   12.644616021379   16.826547470531
O   1.330668580940   9.082700208660   16.802920254427
H   9.555231643032   1.380747111382   11.530475667740
H   9.542867865537   1.361910036361   13.074258755153
H   12.050909802255   4.829364911464   10.029050106745
H   13.388665607404   4.855525871553   9.255109436522
H   13.784895883498   5.039229055116   13.065203698445
H   13.784502611892   5.071079480559   11.519577002144
H   12.014599573807   4.754248807308   14.485792439585
H   12.921202440645   3.504798634323   14.535855850178
H   11.296272357052   1.057176762116   14.539197362350
H   10.395316430321   14.400845609690   14.571942726154
H   9.873912596847   5.053134849313   13.630372612931
H   10.355539411155   6.327686363211   14.367361014665
H   13.440079971852   1.463990646461   9.267117982747
H   12.985410827735   2.725450186592   10.035470711864
H   13.428269462921   1.401494182308   13.770978216499
H   13.430095842123   1.420853277065   15.319662219754
H   9.467819040068   4.837241958530   15.817988485735
H   8.143329667117   4.806118060319   16.649903527110
H   8.099832854427   4.729312967357   12.269220254815
H   9.002928345396   3.465658483476   12.262661823930
H   9.877135130048   5.044429490234   10.815149517214
H   9.893438959688   5.072426905316   9.275225510795
H   11.312497880745   1.139242964514   10.074671316449
H   10.439041437166   14.465250898547   10.083184507740
H   15.170017553688   1.194074422166   12.302390832054
H   13.841295949862   1.177192248184   11.513812989154
H   15.173677838540   1.222497133822   16.821213795269
H   13.832635791987   1.233290991671   17.589489097311
H   13.761912235596   5.150382949767   15.972963998857
H   14.210980560046   6.409247974152   16.764147357339
H   9.557094610720   1.403157779010   15.958612455499
H   9.110123449699   2.693840961649   16.676743614402
H   9.084838756395   10.100635269503   3.451514565799
H   9.659152368815   8.824705441785   2.825995898046
H   13.485028505248   12.227647103364   0.312140240710
H   13.163619828074   10.990814266910   1.172734430875
H   13.843619297610   12.516754075127   2.595063278541
H   13.810501514472   12.458466205637   4.139129816280
H   12.931512787566   10.852849320324   5.573936261062
H   12.033614145122   12.113310275303   5.570971405718
H   9.919157933256   8.520159103823   4.951943268235
H   9.921153071243   8.489510979567   6.490777785504
H   10.363749014740   13.714207063843   5.563794748979
H   9.897383409708   12.462235235396   4.793511314257
H   13.748558431313   8.878780562316   2.055893983498
H   12.360744521931   9.009628553094   1.473425841369
H   13.409497300944   8.758063929672   6.429447918976
H   12.076567639581   8.729936486777   5.648666787293
H   9.533289796883   12.154941118473   7.043036335072
H   8.206369843337   12.154313735604   7.834866278310
H   8.155646816851   12.200688533829   3.316807586771
H   9.507276667978   12.155399280501   2.555911702080
H   10.404949317022   13.638605444839   1.071149929064
H   11.315366198153   12.400624751560   1.117543040802
H   10.023524472856   7.630356344743   -0.569078906941
H   10.993368953541   7.597152897386   0.618272348730
H   13.885865342720   8.443073736847   4.243141695274
H   14.307009116029   7.194272361343   3.429477502314
H   15.180001612038   8.513084308425   7.877173178144
H   13.850597635400   8.494701688726   8.667680142659
H   13.778061923230   12.392574277304   7.029262569580
H   13.803756245351   12.378632804023   8.575618612367
H   9.107917615570   10.051687643687   7.919253928557
H   9.562951791786   8.789563863711   8.699722952816
H   1.853561173524   8.798217931921   4.176820355885
H   0.502225774958   8.750518835691   3.451700571289
H   5.226356951071   10.816208036708   1.133075186660
H   5.651136331273   12.089827951443   1.906223999985
H   6.024602811452   12.453714927792   4.151379916561
H   6.451299530394   13.719401291954   3.369106860731
H   5.233518803216   10.860599389670   5.630491173872
H   5.678514869314   12.122081776445   6.402576298364
H   2.164429195471   8.471599077002   6.425585275380
H   2.587208178746   7.208708100711   5.635736945391
H   2.208550122129   12.420527362067   4.789963975568
H   3.539072341023   12.403765575436   5.581169051019
H   4.298473327628   8.716621773250   1.140897865442
H   5.644356518004   8.718498515432   1.909288517352
H   5.657826773174   8.745355004242   6.414750546490
H   4.309404943102   8.752080389558   5.660395619470
H   1.763664153226   12.164069640229   7.031954697545
H   0.414693945353   12.159362236383   7.791161396694
H   1.316901463827   10.887794076090   3.361966850064
H   0.432313414859   12.160225103279   3.365483045755
H   3.526152569311   12.377173572091   1.108158654352
H   2.190401697028   12.402198871358   1.885617277414
H   2.151079974691   8.515901662917   1.901279068949
H   2.142969213499   8.516855032147   0.350399396227
H   7.392510837636   8.524444789669   3.405916971992
H   6.054402582241   8.521339956416   4.177013569324
H   6.532391045239   7.188750980357   7.848632894976
H   7.425593164757   8.453899761256   7.876250465954
H   6.052008470803   12.428130446765   8.643634767938
H   6.492858335834   13.690182889365   7.869964934931
H   1.780784181850   8.799085743266   8.651309524178
H   1.335822594668   10.061387362359   7.869744178149
H   1.818586301816   1.430944622867   2.578398591323
H   1.820274269723   1.449145720034   4.126158512508
H   5.585540975670   4.866213859661   1.898318736388
H   4.258855113039   4.850648676458   1.108467209827
H   7.323675733433   5.162530066338   3.365513748241
H   6.458029392255   6.436825823292   3.366804507354
H   5.603662561289   4.885152294680   4.825694162656
H   5.619596548316   4.858247653917   6.369855920931
H   2.653004898415   14.513871778726   5.604037733575
H   3.545625077412   1.173652015415   5.602446596262
H   3.448722824218   5.096881961984   5.557524352133
H   2.112957809546   5.103734996429   4.773931806852
H   5.171321567179   2.739187085266   1.096656354393
H   4.305750134415   1.461087134874   1.091098383751
H   5.200685390828   2.755271059632   5.579116040418
H   5.673230583540   1.505783590166   4.804667088734
H   1.700196267649   4.849459495394   7.017307337112
H   0.371752393197   4.849260565291   7.804242469540
H   1.722910449276   4.816816721391   2.535594014257
H   1.307503413207   3.548379752070   3.311382592504
H   2.570808998434   6.394888850852   1.085077461039
H   2.120667507358   5.143297965225   0.297324640084
H   2.169048166402   1.159217576151   0.309857700009
H   2.621426851208   14.492091297876   1.069977700968
H   6.065626900824   1.226367647038   2.550432501644
H   7.411168920712   1.232265814451   3.310093127689
H   6.007084044567   1.189557236752   8.620807349282
H   6.029128014643   1.205878972401   7.074085072069
H   7.381189188810   5.060791325423   7.847013605347
H   6.048719484261   5.070354033736   8.627198488290
H   1.786662071624   1.479807573839   7.048824603178
H   1.309475774065   2.739356243795   7.807805826667
H   9.564890660695   1.513241942908   4.077366006403
H   9.570201569604   1.470182117499   2.531629213325
H   13.229715689975   4.963445784711   1.790339845877
H   13.305294475959   4.936670091434   0.247470065330
H   15.071999358845   5.064015009935   3.287805937873
H   13.744606626679   5.091004328990   4.071775026213
H   12.017322161673   4.839629110217   5.580277604022
H   12.918464416139   3.582304037743   5.594229072182
H   9.935168970059   1.213530081195   6.356749833102
H   11.277561405382   1.233032593101   5.591046502415
H   9.883884004422   5.182453839400   4.817161506197
H   10.348869447099   6.409126974267   5.630722250015
H   13.428881651960   1.567233798931   1.898623090322
H   12.925893969945   2.801932363202   1.109344454338
H   13.438777054996   1.500350159472   4.821234260530
H   13.436820659711   1.465693837984   6.365597697252
H   9.517486880871   4.790543957180   7.038683562724
H   9.093009793335   3.516036275006   7.811673322126
H   9.439505788636   4.934054631685   2.563429347744
H   9.085457475447   3.607925635657   3.270393284939
H   11.209628309327   5.217917826937   0.801930186363
H   9.859735578723   5.114113782947   -0.051712356819
H   11.291238604640   1.191142494856   1.058901760936
H   9.965412032781   1.169794592483   0.269160975573
H   15.195441094454   1.230189311594   3.349135566147
H   14.287476220692   14.587997469532   3.364350789773
H   14.283166154645   14.495425890112   7.812871290939
H   15.188938929292   1.148575417102   7.820685988878
H   14.242542466927   6.412211577374   7.802965659181
H   13.776678805601   5.163259281375   7.012380179997
H   9.530680863761   1.405210100033   8.630199381458
H   8.183278184515   1.422757828156   7.869150067227
H   1.331691624590   2.756272110753   12.358202530506
H   1.776172216873   1.489193475641   13.129032217893
H   5.197815561630   3.506657105611   10.096309348381
H   5.625931874717   4.774886406183   10.867058489808
H   5.984125327202   5.090593430177   13.122192292800
H   6.445852432494   6.344505313670   12.341907853277
H   5.126831405169   3.497471625940   14.562291374388
H   4.222666336967   4.761558544334   14.566830141606
H   3.542473106344   1.140679836037   14.571380961402
H   2.628291370516   14.501050678674   14.569822701627
H   2.589842934168   6.390881486671   14.540703138232
H   2.129092412234   5.143530500673   13.753586257731
H   5.612394792901   1.388983389422   10.881131104185
H   4.264514713847   1.416025533771   10.119762265280
H   5.688797364992   1.391599535124   15.339460522112
H   5.681645630402   1.389870616930   13.792192849519
H   0.372935433942   4.855693822426   16.769335875084
H   1.711389843932   4.866512902003   15.999140652527
H   0.411448864253   4.845224150139   12.276939922199
H   1.754444081259   4.850160049297   11.504487256908
H   3.504002384980   5.056645850933   10.025820463765
H   2.163812650163   5.083576151783   9.249862921700
H   2.121861013266   1.202095508587   9.315857389067
H   2.110087498074   1.199272630365   10.864709603654
H   6.507818598145   14.442381465800   12.323699695423
H   7.402722816156   1.097986201100   12.306893977892
H   7.424527010393   1.138909564279   16.824756804795
H   6.085614129956   1.156758028702   17.597604946960
H   6.013063940251   5.018916126434   17.562722813207
H   5.970803280567   5.006284537248   16.014478595198
H   1.324804594672   2.751284072178   16.784844023691
H   1.779689822195   1.487876936449   16.016438389420
H   8.112024310564   8.766336401110   12.255893584219
H   9.019489105776   10.026854934448   12.256813265773
H   13.461918951325   12.092343401458   10.847282893952
H   13.014200721094   10.819322244285   10.097924272468
H   14.307071325790   13.661364943575   12.309726984875
H   15.213043170567   12.409792757018   12.312543538312
H   13.444525132440   12.066453003720   13.743648536570
H   13.007170203720   10.805513942069   14.528644122025
H   9.855216369929   8.369448262375   15.122720510832
H   9.927083585749   8.444785080522   13.594215239551
H   9.966634897629   12.236031769897   15.389066126696
H   11.296264834071   12.295304490083   14.603017979390
H   13.432858121238   8.714283323627   10.910712444882
H   12.097177997960   8.715452564338   10.133426483735
H   12.076210351791   8.687263680208   14.549251814932
H   13.379649350098   8.716073253001   15.395252910130
H   9.554088920904   11.917444586113   17.623263706774
H   8.228569048444   11.918508721879   16.851409097886
H   9.564898295430   12.089435364997   13.105260047364
H   9.575981931853   12.126963138019   11.555602664319
H   9.977639469329   12.383619700386   9.290531869852
H   11.319502946910   12.354157280905   10.060760466564
H   9.927441216251   8.434160790565   10.864098197993
H   10.390462007047   7.171246457714   10.098353524506
H   14.269466894753   7.161234251375   12.353120277631
H   13.838428094266   8.416390719974   13.145229715205
H   15.183949672143   8.501763942511   16.829356830024
H   13.900386426823   8.527065674607   17.672793690277
H   13.819513071566   12.442751563189   15.975455892039
H   14.254358040046   13.726399980026   16.730891224932
H   9.093893629848   9.689274198500   16.809967854676
H   8.063951227395   8.541246989365   16.701316939733
H   1.761902713342   8.722501077626   11.514035628284
H   0.426041011611   8.727568716244   12.295775599816
H   5.629864456703   12.116937120161   10.880808294244
H   4.297342570842   12.146003150058   10.092175372719
H   6.076018882705   12.348477250649   13.136295064438
H   7.405567474513   12.350020720254   12.343034662679
H   4.326483846546   12.134032477430   14.611307640230
H   5.667079268792   12.118470965659   15.388084892764
H   2.173039659682   8.495339308858   13.755837015208
H   3.512590586414   8.499177459098   14.526792519987
H   2.181183363182   12.385190869518   13.791971127335
H   2.156619854749   12.396873888061   15.338315689941
H   5.201059639375   10.029936312663   10.044969349661
H   5.659423890078   8.766090176339   9.277957526409
H   5.620223751076   8.739422422529   15.341261932725
H   5.219938121491   10.028062869436   14.584872271538
H   0.419601101527   12.165182863256   16.805365104963
H   1.755413398783   12.144117063440   17.589039805637
H   1.357134892988   10.839755234539   12.295051452353
H   1.803886910425   12.103541323286   11.524922758211
H   2.590816038772   13.689962846485   10.063390544366
H   2.156925932291   12.435542156750   9.276092922853
H   2.639529077236   7.185340746848   10.060233739753
H   3.532739823935   8.448551409374   10.072166607800
H   5.989120371581   8.462555555065   11.530974816877
H   6.000373981573   8.474260710109   13.078359508952
H   5.987382503113   8.383665700138   17.605649049656
H   6.385793949662   7.111541849630   16.812743710601
H   6.076674115923   12.356368989915   17.617696436175
H   6.546929786783   13.606413465368   16.846506558215
H   1.335310236597   10.045440379470   16.775869383852
H   1.786728190805   8.781007592713   16.010262541272
