384

O   9.067170579963   1.726224299378   12.302588329192
O   12.967844659281   4.507002932636   10.055247720853
O   14.266492592155   5.382053102408   12.300118905057
O   12.938702427381   4.477132667028   14.535928093578
O   10.387596906206   0.828684145196   14.530284896957
O   10.327614316250   5.397977514691   14.459484341464
O   12.987583659301   1.761705549744   10.070530888346
O   12.963244623302   1.744138987475   14.548413593393
O   9.180648935591   4.552328314816   16.705208708047
O   9.022795994124   4.451471596017   12.294977403438
O   10.367800396779   5.386076659016   10.095062013709
O   10.400649824072   0.824492206111   10.104493472777
O   14.268734890075   0.858397967576   12.315990131782
O   14.279040818255   0.871905800626   16.787703145544
O   14.267042709534   5.428342281995   16.747508447368
O   9.133803975172   1.736219783881   16.772038577837
O   8.971107445963   9.155933291598   3.669940903304
O   13.006167910355   11.870845812186   1.102494465647
O   14.276105826807   12.752743779398   3.372346518400
O   12.958199556376   11.787720797886   5.579476991898
O   10.383336180141   8.137985412354   5.824747381061
O   10.368679611484   12.719601580261   5.594223610092
O   13.159645833991   9.133456459779   1.127858908208
O   12.974763082731   9.039935482214   5.620300230947
O   9.107971961640   11.815253273165   7.848722428402
O   9.049875548498   11.863035375710   3.353021047971
O   10.367850771064   12.692516754909   1.078522163885
O   10.671334076736   8.037225182056   0.178739984139
O   14.280842378565   8.149384958849   3.386958291622
O   14.290308529443   8.162334823667   7.854464338952
O   14.266874942105   12.716246064321   7.799824474131
O   9.054583462195   9.081936151605   7.986620146559
O   1.321671951817   9.079489472519   3.356334270562
O   5.196128010201   11.786133842414   1.097571860521
O   6.447186033971   12.734738264639   3.341811510365
O   5.210899879288   11.806963812767   5.603202488047
O   2.568529097267   8.157849705922   5.619002498689
O   2.632120114926   12.731987012404   5.579914822869
O   5.201066261245   9.032864720695   1.088149342013
O   5.140058739845   9.076620659398   5.651343380682
O   1.333456897492   11.841179378661   7.825925123556
O   1.332505427507   11.823235706559   3.336388426435
O   2.615631630348   12.717312395657   1.085177179595
O   2.594734271239   8.165229053697   1.100994080049
O   6.396880580590   8.187922923810   3.402118308110
O   6.488513601028   8.135632109508   7.845243238049
O   6.515470485063   12.716791205224   7.844771921819
O   1.317777714471   9.098032872166   7.864446461622
O   1.342489931567   1.755017194573   3.350307635186
O   5.207184415017   4.537613243604   1.092482345413
O   6.383205507599   5.449562394224   3.389517027388
O   5.119312470510   4.521762251922   5.618576932402
O   2.621824524224   0.867846493041   5.603597495297
O   2.530584475464   5.418719318910   5.575219740296
O   5.209895157833   1.802242320632   1.099323955121
O   5.196474748203   1.782906049949   5.610384357596
O   1.279981150915   4.510764386901   7.827483323258
O   1.259219805520   4.496519417543   3.312495423394
O   2.608789787458   5.421796481183   1.092257542182
O   2.631390453335   0.852571735218   1.096319779155
O   6.471231343185   0.878228080556   3.357888130426
O   6.479416661571   0.857011140892   7.853989450501
O   6.470961224781   5.395321534340   7.851477369386
O   1.323989924185   1.772835322763   7.842230939879
O   9.084537776439   1.728310289998   3.357291117697
O   12.886863168626   4.613255547880   0.963276693689
O   14.170713605774   5.369836830280   3.227840413083
O   12.967181210892   4.526636590144   5.555743717552
O   10.387509964903   0.864599318374   5.603878884249
O   10.370376838814   5.400382050568   5.734168773783
O   12.997519709391   1.769787550764   1.114569432872
O   12.974189564729   1.783519460238   5.606006954701
O   9.047867197400   4.460178436010   7.906762787282
O   8.961479367795   4.452242547614   3.523614555095
O   10.577977724897   5.489257371454   0.604420976066
O   10.399694860340   0.839758676402   1.103019337131
O   14.281051253324   0.887330745449   3.353742895317
O   14.277851744850   0.850893812191   7.829983540074
O   14.240480156584   5.435451514832   7.814146343370
O   9.083805111630   1.724884094391   7.863702841164
O   1.307236282193   1.799485873347   12.341622835961
O   5.181984756943   4.466345526052   10.086265819467
O   6.462292167996   5.393052890779   12.339338702597
O   5.205130151513   4.489827266899   14.613307868005
O   2.624736847459   0.861587225822   14.558958670576
O   2.623670029585   5.433830294160   14.560413211058
O   5.169157612888   1.733607653289   10.101503805381
O   5.212938396667   1.750637477897   14.563731521653
O   1.336833877477   4.511507561531   16.779645502910
O   1.340312779135   4.537883657498   12.318387204711
O   2.606988615297   5.405079445997   10.050383506738
O   2.575525870907   0.861383401549   10.096547798376
O   6.485469754264   0.815357924426   12.328041562155
O   6.503684050621   0.876725960865   16.826946149787
O   6.600018481750   5.352996854606   16.810211559428
O   1.330269217680   1.769017617061   16.798155891068
O   9.033631177364   9.068579029405   12.220796637112
O   13.003654245370   11.783977096284   10.056451948453
O   14.288476740164   12.712114076699   12.308549096772
O   12.972736311126   11.782614405731   14.521928949751
O   10.369260974021   8.129592700748   14.369622821685
O   10.390582240307   12.702998786968   14.522902015555
O   13.010054669313   9.054343987237   10.099487312900
O   12.987132004784   9.027784566565   14.523929551575
O   9.040118373019   11.852546539959   16.755094357422
O   9.086152552815   11.797831925959   12.282373269166
O   10.420620675629   12.695859194719   10.071894659453
O   10.449449359015   8.120767965685   10.116749160590
O   14.310314339840   8.118487925393   12.313156759104
O   14.335375851684   8.155529573415   16.769224057152
O   14.264346745513   12.736178299598   16.761232356569
O   8.955772445984   9.156183743781   16.469827632141
O   1.340105254885   9.068415658730   12.285153458649
O   5.195472394714   11.804718891771   10.068399173018
O   6.493781917527   12.682527507406   12.318820665418
O   5.210527649691   11.818739281167   14.577308957389
O   2.634121734690   8.173474842614   14.518333474134
O   2.620821586358   12.726081216456   14.552242914856
O   5.187670029685   9.065862979775   10.049620191071
O   5.207963007852   9.086192247591   14.515772108893
O   1.317666845176   11.820494050672   16.783430024936
O   1.345484814938   11.803990681431   12.312329974106
O   2.617528324678   12.727984299626   10.070434208221
O   2.623797930985   8.144272585610   10.070755170288
O   6.467478174277   8.140027757481   12.278375680696
O   6.449369765339   8.140291666712   16.774383463155
O   6.462953307574   12.748558639207   16.817653379908
O   1.360854941734   9.082050625734   16.757996160371
H   9.549046413775   1.401604460511   11.532650650984
H   9.542490117158   1.405221362168   13.076109989815
H   12.058804429129   4.825111324691   10.044927428432
H   13.391826901007   4.849727979609   9.260452991622
H   13.793915014910   5.042827864210   13.066196037312
H   13.796699908714   5.064854806074   11.520407650113
H   12.023696737619   4.768967865420   14.501634774111
H   12.926624779869   3.512983076704   14.544865911273
H   11.304631638205   1.124574493704   14.535851372720
H   10.409747545701   14.466732982187   14.525857209126
H   9.865405511176   5.074334328132   13.674314371138
H   10.334802008352   6.361091279995   14.402466326428
H   13.440398933683   1.460061121373   9.275336845013
H   12.986328905435   2.724370466989   10.039942248409
H   13.438291567300   1.423207963833   13.772976058679
H   13.442334333267   1.428964330203   15.322332756909
H   9.541616797899   4.861683555258   15.856036725677
H   8.254317040718   4.841851223201   16.753233819818
H   8.107691577370   4.754131348516   12.301459528184
H   9.006889363414   3.487466505288   12.292236774753
H   9.894168456421   5.051534247247   10.862820687506
H   9.891150550325   5.055684651841   9.323716674596
H   11.310557657196   1.138940029375   10.085927504589
H   10.438694634032   14.463650432919   10.093317304781
H   15.167251967571   1.205583519252   12.305805925956
H   13.836788385846   1.185871998328   11.519049062409
H   15.186343049429   1.196582097375   16.809396474108
H   13.852711669907   1.186551247279   17.590287649063
H   13.804486128814   5.129365741871   15.956950936261
H   14.284849629461   6.393019825364   16.723839357408
H   9.571873830391   1.412049026112   15.975204855982
H   9.154024796881   2.691433462402   16.721262279827
H   9.040434417665   10.109644644571   3.521144997207
H   9.516235424636   8.734942601758   3.012425040978
H   13.449269703159   12.166541557017   0.300498111652
H   13.072989071316   10.911255935529   1.108495385865
H   13.812704024014   12.442526916059   2.587384038499
H   13.796656987777   12.405483988108   4.132576948539
H   12.939031590695   10.824314830987   5.585695555545
H   12.042286202907   12.084790800340   5.580476119816
H   9.886097606296   8.497521466434   5.086315266004
H   9.929172787594   8.462941864104   6.611171311073
H   10.376358290853   13.682393959903   5.586738124206
H   9.902727022236   12.443309959325   4.797925473744
H   13.531803382696   8.781635276453   1.947924751576
H   12.273838068756   8.797658035437   1.067711774927
H   13.431412562037   8.733285092180   6.410939598448
H   12.072254624527   8.708713025641   5.684241937792
H   9.532593909835   12.128813946368   7.042353570502
H   8.203400558165   12.145439488535   7.831596135384
H   8.142608238100   12.184879859333   3.316368999601
H   9.488429756673   12.152279095100   2.546660165133
H   10.399795009246   13.654407458404   1.089589941933
H   11.283291692341   12.394436891996   1.088682441758
H   10.048172676947   8.448546750621   -0.454315089979
H   10.594650068724   6.461470568683   0.496170822378
H   13.797094159938   8.433340616533   4.172109511163
H   14.222207436019   7.190250755328   3.357429245042
H   15.190920809913   8.504160292402   7.872533125543
H   13.854557065086   8.488192595014   8.649129998933
H   13.790702404166   12.381767735715   7.031696534483
H   13.812900920165   12.375138583060   8.577325122339
H   9.091674695758   10.043893823941   7.967566895055
H   9.544604112062   8.784984674049   8.760603039562
H   1.760587511205   8.757202621041   4.151034112440
H   0.422071136255   8.736922534736   3.390480780444
H   5.216896471426   10.823319140855   1.110638107980
H   5.640435348357   12.087651896537   1.897729316978
H   6.013185029034   12.424394932915   4.143976259073
H   6.427824938916   13.696963813788   3.366836288332
H   5.202998178506   10.843731859517   5.634909354984
H   5.671544904837   12.105682461123   6.394207872905
H   2.112313107912   8.459781626476   6.411583184242
H   2.539128292763   7.195262902946   5.624178082409
H   2.202945937949   12.404001179153   4.782767499468
H   3.534727729401   12.394993342505   5.571532025223
H   4.290290316425   8.720729369344   1.113005175947
H   5.620323467218   8.722230206797   1.898891101572
H   5.597154935394   8.726043068014   6.423021379992
H   4.237513674718   8.740599728948   5.677779929411
H   1.770364208752   12.159384370703   7.028607551887
H   0.423986762061   12.156495256476   7.792147645343
H   1.299351427328   10.860474015645   3.344752012891
H   0.419953100197   12.130321979808   3.353244198626
H   3.515912102723   12.375462535770   1.104877996304
H   2.179410499699   12.392189600863   1.880368792555
H   2.125544782383   8.500703467851   1.872444949405
H   2.144756487027   8.507379429779   0.322261814660
H   7.295690537859   8.522049834128   3.473484137739
H   5.941540059585   8.500788045718   4.192493769050
H   6.514437777281   7.172616877815   7.845563692610
H   7.401053846226   8.441580293189   7.882375898034
H   6.049734200559   12.417389813811   8.632658624234
H   6.489251845279   13.679432956903   7.860536233253
H   1.786459433909   8.794941022800   8.649188896537
H   1.340893756401   10.060705521525   7.871817000688
H   1.813267696058   1.420388251499   2.580101922319
H   1.814826657345   1.438522720855   4.128328576683
H   5.614779665783   4.867599096572   1.901513531086
H   4.301523562077   4.866422626115   1.092632861178
H   7.288578265450   5.130399104399   3.433897510538
H   6.428939230777   6.412886320657   3.390742291693
H   5.574588758760   4.871855583465   4.844231264480
H   5.601174090817   4.842776839125   6.388075649539
H   2.645933156606   14.506872666696   5.600728050516
H   3.537656644369   1.167689082203   5.606605070721
H   3.436241536013   5.089624453540   5.569025126103
H   2.104868441016   5.088877700093   4.777184939616
H   5.174558122079   2.765296140175   1.106247555689
H   4.299108862728   1.488471640312   1.098086156301
H   5.186381864756   2.746320908150   5.590848291159
H   5.653723506398   1.494265471917   4.813512748442
H   1.699089107006   4.840843172902   7.024992544289
H   0.374084366244   4.839571129671   7.816579703996
H   1.734918188172   4.800963660591   2.533059347080
H   1.303676375788   3.534514297557   3.305671407741
H   2.586306166706   6.384762253610   1.080518414046
H   2.157849926591   5.126286000815   0.294907890747
H   2.169245881287   1.152700610923   0.307088819934
H   2.621518595576   14.491461396873   1.074048686767
H   6.047269584710   1.218438989001   2.563288143980
H   7.385878936883   1.177606059032   3.337191131971
H   6.000354304292   1.179494501791   8.624285525189
H   6.021339745151   1.196975933619   7.077996162727
H   7.369756189608   5.048905695776   7.871737912994
H   6.034757883519   5.064291886247   8.643249162765
H   1.785699606416   1.474871237380   7.050864636029
H   1.313665221610   2.735785232255   7.812647048105
H   9.555989244805   1.408196375216   4.134996515680
H   9.559124364784   1.401312923653   2.587083611475
H   13.317529596306   4.917284842604   1.780050185883
H   13.439636606868   4.900271250206   0.218295787930
H   15.077679754365   5.046730101382   3.266051396882
H   13.737800417361   5.065572613962   4.034364492006
H   12.050525328277   4.820515489081   5.596429921180
H   12.948020556019   3.564212971309   5.582601944545
H   9.947551305931   1.181049211225   6.399760212417
H   11.289415577596   1.201337729986   5.627723601163
H   9.875420525304   5.114835189661   4.963003021717
H   10.361739648498   6.365122013516   5.725813006116
H   13.454642623110   1.486609811667   1.916984591299
H   12.985228694290   2.725803032123   1.120043266302
H   13.443385631343   1.461124044783   4.829967194256
H   13.449468972206   1.448902138695   6.374083732146
H   9.521609995173   4.776874931189   7.128086124565
H   9.073256508818   3.498020745481   7.874781132398
H   9.450056135151   4.841504695732   2.806838430094
H   9.031013652118   3.492882493810   3.423706795124
H   11.519578304328   5.120628011203   0.748618498121
H   10.034094173147   5.068690686238   -0.146553985842
H   11.303737530013   1.167563565879   1.090422148708
H   9.977190393553   1.161210131785   0.300942508721
H   15.201440146426   1.172949911807   3.356250467438
H   14.293030577877   14.525588992538   3.364242799335
H   14.291777431074   14.489682513836   7.823026169633
H   15.194943758725   1.144932066466   7.833234405324
H   14.248907252516   6.399240096677   7.801589865545
H   13.793570795589   5.146342194957   7.011079178792
H   9.519408771368   1.389272906288   8.653459000330
H   8.175876908230   1.404481224402   7.882461938675
H   1.334474999822   2.762081037545   12.358997433935
H   1.774536973768   1.491611862643   13.125299801138
H   5.191716557413   3.503177983313   10.113016017719
H   5.623558362728   4.770765647531   10.885105086511
H   6.011463334766   5.110802092572   13.141665816892
H   6.453825150214   6.356315687663   12.335698318029
H   5.179664360176   3.527066231728   14.588057431009
H   4.291825248708   4.795210168703   14.606022722335
H   3.544550441866   1.146995590758   14.561246829667
H   2.635143554670   14.500181302487   14.553058520294
H   2.627531259577   6.397083574114   14.533600736594
H   2.175116390527   5.140792340203   13.759390309165
H   5.608491651519   1.390974410025   10.886672217655
H   4.260472005185   1.414385060429   10.124935529522
H   5.682949418730   1.430756198207   15.340553436600
H   5.680629117643   1.411746070452   13.792400871802
H   0.431403073970   4.832433149137   16.748000632113
H   1.774933406778   4.850404698851   15.990282933230
H   0.429063695675   4.847784607500   12.291717773742
H   1.767126898151   4.851982074147   11.513554223819
H   3.503958883340   5.054389412690   10.037890198510
H   2.165044277806   5.079992485760   9.258330614944
H   2.121966684024   1.199997545612   9.316531422268
H   2.105572766437   1.200315846374   10.865387804088
H   6.509725048600   14.454175584440   12.324697403646
H   7.401247354674   1.113351443522   12.310588246552
H   7.413685311516   1.184779087638   16.843735234699
H   6.069915716604   1.226983946816   17.613926691158
H   6.121168942276   5.058433656898   17.594238905174
H   6.097820077753   5.033302574142   16.051431560665
H   1.347597863446   2.731544779813   16.774223292542
H   1.787883316223   1.465411022759   16.006555730059
H   8.117065464428   8.770158182484   12.235626786121
H   9.023521388895   10.032178360165   12.236443094820
H   13.458840744199   12.096357705983   10.844836720693
H   13.019300020636   10.820998616352   10.092052328797
H   14.303790858349   13.674918993945   12.309446458560
H   15.206135202862   12.419555645879   12.308021664048
H   13.435655947602   12.087170698157   13.733595153747
H   12.992597050022   10.821121076198   14.502440367911
H   9.848076905679   8.503068811113   15.085971256072
H   9.937187461185   8.450976055825   13.568111485203
H   9.942639436646   12.395910726794   15.317845199730
H   11.289437881336   12.357481031025   14.550668334345
H   13.452502055436   8.712460433382   10.883507231753
H   12.108649483904   8.713969658930   10.122778047248
H   12.084683747410   8.695904258598   14.512195152295
H   13.408690298696   8.710149194359   15.328615892007
H   9.488347953049   12.135202462857   17.559558540196
H   8.140832624544   12.197192746565   16.800026722824
H   9.558737579875   12.118199286835   13.057591053537
H   9.563406462815   12.126202507981   11.511899186141
H   9.979852240639   12.385759912664   9.272428418265
H   11.321232343277   12.354702993097   10.046592160398
H   9.946406270029   8.424624062517   10.880162288626
H   10.409007410613   7.158084963916   10.117619833880
H   14.287853237560   7.155656598495   12.328900934707
H   13.849143436289   8.418756990002   13.103213123905
H   15.243432075491   8.482047466660   16.746844673343
H   13.955072685863   8.494975077482   17.584964789126
H   13.806870212176   12.426054711723   15.973389436853
H   14.251705370389   13.698395695733   16.736654278693
H   8.947192253736   10.116214241128   16.572023177636
H   8.054108518229   8.834171167498   16.588632476039
H   1.776221208783   8.726783866828   11.496047520456
H   0.439992787294   8.725894588540   12.275656100031
H   5.627703207826   12.118641611145   10.869332966118
H   4.294216568432   12.144671928823   10.084227981868
H   6.071421192020   12.360080197832   13.122089954946
H   7.399691729096   12.355803248834   12.323349917809
H   4.303238905095   12.142515351193   14.582385631809
H   5.631340150076   12.164527219338   15.372231457072
H   2.193532791045   8.496060361399   13.724073301907
H   3.537144077923   8.507586634044   14.490831392570
H   2.161415052293   12.387059243707   13.776085780695
H   2.144398685673   12.400751291553   15.323666687076
H   5.199511032259   10.028795416064   10.028719700831
H   5.651100095818   8.760117500111   9.261039041426
H   5.634932766679   8.762984514846   15.315422034860
H   5.223902608180   10.048636592811   14.562037134115
H   0.413344477747   12.150795437487   16.801062084532
H   1.751269991649   12.142501860144   17.581054032860
H   1.350744405590   10.841007994177   12.282255169992
H   1.795196342760   12.107566061234   11.516096302808
H   2.590494913215   13.690969146511   10.064451370106
H   2.159991614840   12.436777979251   9.273803086383
H   2.644605638683   7.181322876147   10.056829334743
H   3.539513593757   8.445059976421   10.061493069004
H   5.995544037420   8.467453337480   11.504185976639
H   6.010826766581   8.489100282400   13.051251774806
H   6.013617534623   8.427497036023   17.586359783061
H   6.488998586653   7.180677563397   16.806827202323
H   6.017264659906   12.431061191315   17.611366482436
H   6.450383357906   13.711213243973   16.851019781904
H   1.359644468140   10.045069012460   16.740694166601
H   1.825935429318   8.787430274318   15.967086789281
