384

O   9.061612807216   1.719769254097   12.293134972008
O   12.961357747904   4.508119773493   10.052207361026
O   14.259292455786   5.377259526087   12.301162013136
O   12.930178628387   4.473378980272   14.536257003330
O   10.384166036044   0.819277838715   14.519784384895
O   10.318953024435   5.386813809308   14.453023763712
O   12.985815135566   1.762922481961   10.069351115004
O   12.958730236203   1.739690481647   14.547085847615
O   9.182201465286   4.539873329273   16.707303871334
O   9.016171732508   4.444152471719   12.285328753949
O   10.361003696867   5.384526664474   10.087945717826
O   10.398945911519   0.825176554122   10.095027884603
O   14.264413627426   0.853547037438   12.314823421657
O   14.277737041229   0.869387420727   16.785398694397
O   14.266358954715   5.424630062781   16.744739165761
O   9.131954631229   1.724226423644   16.763781799977
O   8.936954195368   9.157435021523   3.694126895925
O   13.015585741251   11.875958230092   1.107200740532
O   14.280087994835   12.760411199543   3.377545298711
O   12.958648634421   11.799293872233   5.583208668266
O   10.387478947375   8.152151458990   5.817979338030
O   10.370543549665   12.731310507531   5.592096884671
O   13.211028694203   9.150867097792   1.109323272021
O   12.971835975716   9.051555612420   5.618731385990
O   9.110740571165   11.823296917386   7.847122107025
O   9.054513060285   11.864229586309   3.353858839603
O   10.376064284442   12.688500526944   1.077197393601
O   10.831202253503   8.005804148412   0.079639421508
O   14.270159834983   8.152856741808   3.387410005279
O   14.285646017764   8.168335626344   7.852746927708
O   14.267051628785   12.721259785877   7.807420280799
O   9.055373088278   9.089279631665   7.983322023476
O   1.314713497641   9.083769290947   3.359189055469
O   5.200056654092   11.784202891774   1.102855631902
O   6.453813459172   12.739864314272   3.343677144814
O   5.212733562852   11.820874866859   5.607534891775
O   2.557185890121   8.162505042611   5.624352450321
O   2.633268934050   12.739135941719   5.587501664211
O   5.206470734100   9.031016606267   1.090067270744
O   5.122673963233   9.092967418488   5.671251668193
O   1.333933251808   11.843753364035   7.830744017176
O   1.334979598639   11.827371026292   3.345031607863
O   2.620182616103   12.716364264947   1.093345041586
O   2.594722453285   8.165334060851   1.102324284815
O   6.364054385038   8.192220296469   3.421130268592
O   6.487501442757   8.142439355307   7.851505238511
O   6.518789366090   12.724859471292   7.850092605701
O   1.312979837031   9.101368141268   7.871931561667
O   1.342884230726   1.762281487332   3.352297188954
O   5.198239314173   4.533877639768   1.090703746225
O   6.365694089333   5.452752795702   3.388737084634
O   5.115045784569   4.524175238515   5.618222430530
O   2.624835306267   0.874445137076   5.603174376042
O   2.528923966674   5.423693220274   5.577771927696
O   5.206956560039   1.799033667036   1.094455294736
O   5.200482670154   1.786235499240   5.605638969026
O   1.277078129507   4.515550878088   7.828155558807
O   1.254727084855   4.503182173053   3.315369331688
O   2.599928501900   5.422994386562   1.094171684744
O   2.627562358494   0.851298396925   1.099982798098
O   6.476156962293   0.883980845870   3.352060869459
O   6.480167737189   0.863790618869   7.851415413789
O   6.471007336670   5.401374675901   7.848119238606
O   1.324736137662   1.776794264129   7.841257864215
O   9.088590659930   1.739787775457   3.342229241574
O   12.908664536438   4.590949379904   0.964959843930
O   14.169227112014   5.374934226434   3.231954511903
O   12.962062737209   4.536423330277   5.552870151588
O   10.387603823704   0.875892492190   5.593818174444
O   10.369926610397   5.414974464940   5.720644819858
O   12.999702894956   1.760583879983   1.112594911322
O   12.975153059305   1.794480346260   5.604736613840
O   9.048810789918   4.466591721533   7.891665432075
O   8.948826594716   4.468367168480   3.520434485491
O   10.607758547737   5.481623359763   0.581068261400
O   10.402933927335   0.833717476007   1.093276251031
O   14.282790734391   0.893387493920   3.356250930020
O   14.277989150148   0.856614902557   7.828814180678
O   14.236617765968   5.441528113806   7.813032746752
O   9.084090777975   1.731036581093   7.854393462625
O   1.302027179781   1.794707746739   12.341565664818
O   5.179862832718   4.465732141605   10.081450324248
O   6.455949641349   5.385198490122   12.339277869454
O   5.201569550706   4.481858746879   14.612782746072
O   2.621204017218   0.858116549622   14.558349355714
O   2.619025728851   5.424335608150   14.561467539046
O   5.165865717841   1.732553550967   10.099161509369
O   5.209909377528   1.742161036332   14.561384233126
O   1.332546803907   4.506696674626   16.781056922375
O   1.334444282736   4.533325440558   12.318803612891
O   2.604473674085   5.404011852725   10.053089948990
O   2.572394115212   0.860652575126   10.096463313359
O   6.480821592487   0.805958866634   12.324352205195
O   6.501084679076   0.865998898397   16.822588868744
O   6.603585048771   5.344025676236   16.813052241614
O   1.327831501931   1.765309523452   16.799036523022
O   9.033734613368   9.063595143310   12.223054123427
O   13.003061503027   11.783608726718   10.062092958805
O   14.288165742686   12.707524912702   12.315847999232
O   12.976580739193   11.777690611217   14.530786968756
O   10.373237659479   8.122677250520   14.368539499477
O   10.393350817549   12.692039475327   14.525750667590
O   13.007029187603   9.053534044616   10.100999737304
O   12.993592696883   9.022778993338   14.525044780822
O   9.050305276225   11.837387404070   16.764120534004
O   9.087675702632   11.791645956589   12.284577684846
O   10.419821201526   12.695725588158   10.074298810931
O   10.446571117380   8.119743397347   10.114961977280
O   14.312970881171   8.114566217180   12.312450132738
O   14.365614941213   8.149507193646   16.756812148433
O   14.272057244988   12.736812766460   16.766959500860
O   9.008626875352   9.138724104572   16.502641891392
O   1.343915574057   9.063420523941   12.292462170465
O   5.197133265460   11.804334676783   10.072276930412
O   6.494430890469   12.672612165181   12.325766798804
O   5.213313314455   11.805146220169   14.583971706637
O   2.647162859859   8.164589961409   14.520039823879
O   2.625666104044   12.722035803901   14.557098956037
O   5.189613661306   9.065319186170   10.059772617782
O   5.224863646693   9.072755706629   14.535037024643
O   1.326011940582   11.819696807250   16.790385682089
O   1.346521026436   11.800792955425   12.318099668800
O   2.617993188497   12.727217157894   10.076232511931
O   2.624901850992   8.143598152906   10.074912067597
O   6.469083742139   8.132261276538   12.285847707793
O   6.489898762396   8.134076903913   16.792979686342
O   6.471150770141   12.734933729953   16.820927833442
O   1.379146941191   9.082750895312   16.752585015260
H   9.544181817124   1.397510811074   11.522605836607
H   9.537669337308   1.398377983638   13.065944168409
H   12.051806019994   4.824865495470   10.040718240254
H   13.386160423247   4.852489403501   9.258646804199
H   13.785329112836   5.038449269416   13.066582396456
H   13.789193019296   5.062431156838   11.520754817026
H   12.014497344827   4.763081696807   14.499006284896
H   12.920015910159   3.509228742528   14.544162948678
H   11.300563426617   1.116940288912   14.528523122344
H   10.408061445777   14.457437205622   14.518714049371
H   9.858566970478   5.063854737149   13.666441308649
H   10.327452525422   6.349778142738   14.396918658764
H   13.440072838055   1.462983062030   9.274307285032
H   12.983198922041   2.725603477149   10.039373709672
H   13.434384736270   1.418850748166   13.771992221696
H   13.437908294635   1.425086985730   15.321180869008
H   9.535756368180   4.848341102914   15.855113029840
H   8.256468734417   4.830712147824   16.762182576934
H   8.101037230557   4.746709494845   12.296017622261
H   9.000154543897   3.480121228301   12.282131311757
H   9.885298929475   5.047409954474   10.853300234583
H   9.886794355248   5.057223424831   9.313783586207
H   11.308825289058   1.139846636418   10.079297654300
H   10.437337945041   14.464332809141   10.086864176911
H   15.163004662330   1.200646679984   12.304930901593
H   13.832653281439   1.182165180307   11.518275925176
H   15.184853410497   1.194758538105   16.807218333890
H   13.851958582414   1.180972997697   17.589651718278
H   13.799581132864   5.127699252888   15.955906119309
H   14.293477575068   6.389170843470   16.719399371851
H   9.568030124117   1.401877851886   15.965181112838
H   9.152647309987   2.679600319982   16.716118211735
H   9.020250403795   10.106902746072   3.529307121683
H   9.422468107890   8.713572561056   3.004075588043
H   13.458518907475   12.175235312635   0.306324221346
H   13.092931300798   10.916939226893   1.111650620852
H   13.817160799763   12.449804473775   2.592372273199
H   13.799567221140   12.414754090609   4.137871759651
H   12.937952220790   10.835941816706   5.588038226121
H   12.043113192780   12.097904784272   5.582740588436
H   9.885449651712   8.507423505317   5.079760324758
H   9.932234659045   8.474259956520   6.604683093563
H   10.376760544921   13.694089509836   5.581182447499
H   9.905716379152   12.451094701193   4.796358332388
H   13.553201596609   8.788636665608   1.937829599095
H   12.340803717599   8.793712978672   0.988242675558
H   13.428140708357   8.743958676324   6.409112897408
H   12.067990691041   8.722797848128   5.683491240782
H   9.534727318803   12.138755589061   7.041204296491
H   8.206234392222   12.153763571901   7.831838587347
H   8.148155730827   12.188378903464   3.316565025388
H   9.493504256235   12.149776239355   2.546678575349
H   10.405694553978   13.650580397493   1.084738141243
H   11.292219287457   12.392680537145   1.088393613785
H   10.164763554684   8.426881687002   -0.500433752085
H   10.658076857369   6.448796249584   0.443972208925
H   13.787993491645   8.440114693233   4.172461619810
H   14.215265963491   7.193439557967   3.362141637684
H   15.186616459312   8.509087543687   7.873905814714
H   13.849453647761   8.491547198027   8.648263853241
H   13.790577092497   12.388285666793   7.038875107144
H   13.813171256251   12.379065526499   8.584453842728
H   9.093017643679   10.051182670263   7.965424219006
H   9.543941159564   8.790909071054   8.757495066922
H   1.751962077870   8.760994144130   4.154603955414
H   0.414972896370   8.742305309617   3.392321067557
H   5.221727433031   10.821261310970   1.115690930609
H   5.645749861332   12.086534098067   1.901881209736
H   6.019519303123   12.432214057016   4.146648647247
H   6.434769849333   13.702152275086   3.365577059082
H   5.198725961286   10.857770025154   5.642660342503
H   5.674042701596   12.118562042800   6.398533543598
H   2.100981452758   8.462119272636   6.417806002203
H   2.532738427606   7.199768525879   5.628776497766
H   2.205100290248   12.409190112339   4.790653388015
H   3.537300097938   12.405584986836   5.578661908448
H   4.295774848338   8.719256734764   1.108320199924
H   5.616042007469   8.722335134853   1.906773562561
H   5.584170716908   8.738962204665   6.438597290812
H   4.221366057464   8.753919517175   5.697408539928
H   1.771995022008   12.163376094353   7.034543356221
H   0.425054083912   12.160651088273   7.797503108962
H   1.299030772308   10.864696453436   3.352133687243
H   0.423266884816   12.136932922188   3.360636645581
H   3.520674096318   12.374853625438   1.112951903974
H   2.184284166005   12.392293202929   1.889114134360
H   2.125465809927   8.503201043140   1.872294243908
H   2.148595549586   8.508809942715   0.322020397269
H   7.261547607724   8.528765225040   3.498446307383
H   5.905957621216   8.505723898810   4.209480289897
H   6.514691117529   7.179520923840   7.847408364409
H   7.399792741567   8.449573080132   7.883534547434
H   6.053159440561   12.424076259671   8.637384261607
H   6.491388454856   13.687507919709   7.865409859157
H   1.783359616153   8.797447410150   8.655259439913
H   1.338353178347   10.064028205263   7.878426803899
H   1.812164271771   1.425997700121   2.581841288996
H   1.816274829527   1.446106340263   4.129878651249
H   5.605598908317   4.866257027531   1.898997159281
H   4.292805960836   4.862865871415   1.090865622182
H   7.272524583466   5.137429766006   3.432452038280
H   6.407894175878   6.416286846179   3.392698453130
H   5.567072527937   4.874734580029   4.841685658475
H   5.598764782239   4.846978799557   6.385692648773
H   2.647569628013   14.513396925902   5.602024049834
H   3.541165944579   1.172945589872   5.604497423028
H   3.434615738871   5.094184203228   5.571266247018
H   2.103089467102   5.094467133108   4.779634069191
H   5.170909400187   2.762145433553   1.101506350017
H   4.296232402887   1.485313350598   1.096960050966
H   5.188833160974   2.749738699198   5.587107607320
H   5.658284838660   1.498777128258   4.808629179640
H   1.697172486077   4.845922803919   7.026225624873
H   0.371373647487   4.844612774924   7.816610816985
H   1.730028194011   4.807204162956   2.535293311613
H   1.300204648024   3.541193966964   3.308878572392
H   2.581023107698   6.386076524923   1.081427056290
H   2.149623676809   5.127469101650   0.296576416164
H   2.166217571187   1.149031925226   0.309466464090
H   2.620260994820   14.490114568752   1.079622249225
H   6.048969873424   1.220930588390   2.557774997048
H   7.389821378187   1.186100711237   3.327816604098
H   5.999335984430   1.185520550236   8.620895257983
H   6.022453930892   1.201734333264   7.074244926259
H   7.369795497446   5.054896725620   7.864795977306
H   6.036109389303   5.067507297487   8.639272031571
H   1.787889321557   1.480159803352   7.050192274639
H   1.313637057635   2.739715709951   7.812721001727
H   9.558670385824   1.421444069018   4.121228740104
H   9.562150736204   1.407237082415   2.573920338363
H   13.332662082474   4.900622954304   1.783167747955
H   13.459680369608   4.883619376098   0.221124966018
H   15.077099758552   5.053980051257   3.271073604756
H   13.736361208969   5.070650439415   4.038874681781
H   12.045242688920   4.831064845688   5.590160289089
H   12.943182809432   3.573989515531   5.580497536276
H   9.946128626623   1.191011331648   6.389393175159
H   11.289410191277   1.212347366368   5.620497613465
H   9.871523177776   5.131561044033   4.950642339410
H   10.361560623857   6.379764635865   5.715582909622
H   13.456120196727   1.479072181872   1.916018688142
H   12.991641229292   2.716907511920   1.115304715106
H   13.444706864676   1.470964987417   4.829322235421
H   13.448926355760   1.458723756952   6.373164394335
H   9.521787159568   4.785482455995   7.113441460867
H   9.075152121494   3.504542080025   7.859124622724
H   9.415530566034   4.877002596209   2.799221325193
H   9.029012588232   3.511811697110   3.406690588338
H   11.538574370090   5.094452969847   0.733706288745
H   10.049728786385   5.056620237059   -0.156935496757
H   11.306900204730   1.161790395884   1.081412424787
H   9.980478096329   1.152474384948   0.290100769280
H   15.202780886642   1.180498759505   3.358581167351
H   14.296311156172   14.531646173169   3.368958453883
H   14.291460450879   14.495415358222   7.824828438930
H   15.195296083542   1.150042505895   7.831942801791
H   14.245121434779   6.405339603447   7.800846536726
H   13.788960873714   5.153308088732   7.010179842217
H   9.520205774967   1.394049355990   8.643212068439
H   8.175814742261   1.411640143103   7.874716809455
H   1.328966502888   2.757278621570   12.359242369960
H   1.769689800732   1.486687280469   13.125009992498
H   5.188650392935   3.502579411294   10.107574016032
H   5.620117701820   4.768406541348   10.881705327984
H   6.005271417103   5.101531878044   13.141322494550
H   6.449591145182   6.348445169725   12.338677551642
H   5.177288996894   3.519123559268   14.587743137535
H   4.287808073963   4.785606627027   14.606100380862
H   3.540997130656   1.143878995948   14.559680103079
H   2.633163321004   14.496730231212   14.554126513763
H   2.628390333469   6.387432966278   14.534866657780
H   2.169408444439   5.133582133457   13.760196731431
H   5.605198687948   1.387551414733   10.883246111203
H   4.257080655048   1.413622965035   10.122625914804
H   5.679596889010   1.420861665733   15.337884996626
H   5.676875487350   1.403092860410   13.789741620927
H   0.426639305171   4.825933333953   16.746320522515
H   1.771468736265   4.843955274573   15.991389539937
H   0.423164124480   4.842955874936   12.291927433382
H   1.762145413354   4.848459768396   11.514846100213
H   3.501488953945   5.053394281503   10.038373748049
H   2.162028155603   5.081427942994   9.260295565779
H   2.119619488951   1.200012535626   9.316360699049
H   2.101844985783   1.198831285273   10.865264777513
H   6.505893220416   14.444828437315   12.324187645036
H   7.396342935185   1.104515116557   12.305279856687
H   7.410452534659   1.175857859774   16.838243312854
H   6.066786838706   1.218030553027   17.608398798572
H   6.120148243210   5.052639009776   17.595407900027
H   6.101099768543   5.028820012368   16.052931271652
H   1.345442641409   2.727901251056   16.776005037936
H   1.785468300455   1.462204360103   16.007273754340
H   8.117662920702   8.763769655311   12.240029690697
H   9.022647672794   10.027205237847   12.238255724956
H   13.458029489705   12.093704104801   10.851479132383
H   13.017487909721   10.820582693213   10.095824912939
H   14.301669668050   13.670373974904   12.314125507482
H   15.206243807297   12.416386861394   12.314695414651
H   13.438420597984   12.082759849962   13.741985027770
H   12.996932002433   10.816303451946   14.510164567049
H   9.858154045156   8.498033341930   15.088405904775
H   9.939279154970   8.446919467954   13.569253172039
H   9.947248455612   12.385112764017   15.321746518250
H   11.293020729622   12.348545441243   14.553739113764
H   13.450769402981   8.710204253967   10.883545712792
H   12.105750049203   8.712660263369   10.124218753017
H   12.092147461543   8.688315776184   14.514367146957
H   13.420668562565   8.702730905332   15.325814292169
H   9.497171107420   12.126801631005   17.567224275078
H   8.149434672371   12.178009405019   16.806717610414
H   9.561401910946   12.110066981946   13.059895786465
H   9.563467201488   12.121816826408   11.513980321882
H   9.980616101059   12.386653033655   9.273492166913
H   11.320537692109   12.354889581312   10.050234812016
H   9.943876998950   8.422136441555   10.879177274654
H   10.404772262629   7.157144934880   10.113601307020
H   14.287620638642   7.151853901143   12.329179949661
H   13.852479921714   8.416448054257   13.102240480457
H   15.274586382281   8.473680367526   16.725209356902
H   13.998548329686   8.498336746749   17.574477342773
H   13.812781604592   12.424261621036   15.981196161116
H   14.257976131633   13.699022593674   16.739720015293
H   8.989395026909   10.099262035976   16.600225214456
H   8.110574692543   8.810329843168   16.630738161982
H   1.779284432212   8.723918203181   11.501994906721
H   0.443885609114   8.720646108532   12.281942267069
H   5.628624910362   12.115396653370   10.874742966045
H   4.295814235027   12.143915203203   10.088665624219
H   6.072939963279   12.349086757081   13.129064017009
H   7.400833769273   12.347319182737   12.329567593993
H   4.306847710349   12.131105336441   14.588774552526
H   5.635383703926   12.150851299219   15.378325063187
H   2.207052746901   8.489861795025   13.726622881619
H   3.551496114722   8.495225398927   14.495727315180
H   2.164784121305   12.382568857252   13.782087972754
H   2.150034097531   12.398520323118   15.329771650025
H   5.200730061279   10.028274023749   10.037940585395
H   5.653499189557   8.760291760940   9.271086477017
H   5.659617163149   8.753439499353   15.332003573360
H   5.237130609032   10.035396848398   14.578435505210
H   0.421586798340   12.149526305524   16.808026756409
H   1.759102834274   12.140765913364   17.588767244827
H   1.352268817396   10.837900340154   12.287929924862
H   1.796271425094   12.104953872237   11.522090312671
H   2.590505054961   13.690179439111   10.069149332838
H   2.160585518860   12.435794572192   9.279616851249
H   2.644894644481   7.180627654518   10.060638729795
H   3.540831182724   8.443785187893   10.067025829296
H   5.996044233493   8.463466520041   11.513908850338
H   6.016722755854   8.479953399946   13.061793580770
H   6.046883574898   8.422223295880   17.600547552834
H   6.520057004325   7.174084433229   16.823095709809
H   6.024284070821   12.420917880999   17.615467796839
H   6.457404218500   13.697570624697   16.850503106075
H   1.375098319086   10.045793048725   16.736704536358
H   1.846723759165   8.788088502392   15.963062936154
