384

O   9.061024093943   1.701614328881   12.273480263002
O   12.964828860999   4.519737516820   10.048820617291
O   14.260482597464   5.372758542087   12.313120882758
O   12.952010162553   4.439061256779   14.532741582722
O   10.387589644658   0.746403292876   14.487713520203
O   10.350104310171   5.285194267671   14.391081759878
O   12.989254923930   1.773049680048   10.079016987089
O   12.952482081740   1.687519210697   14.564811178656
O   9.014457720544   4.283439480077   16.598478135429
O   9.007836195960   4.431740949241   12.174555589855
O   10.360177727656   5.403204689084   10.004782467652
O   10.406189344622   0.832301343118   10.074452407600
O   14.279258708560   0.849245490743   12.316926429893
O   14.278603824137   0.854891486634   16.810438152857
O   14.276877098571   5.419660653663   16.759177106215
O   9.100565656425   1.608602819302   16.749204409317
O   8.988065965320   9.189962461573   3.524722455889
O   13.007989145758   11.898668696881   1.135000402242
O   14.291572945064   12.744234881212   3.401932208405
O   12.959930438395   11.801599038949   5.606660044464
O   10.378247298744   8.144137530812   5.643896551605
O   10.383064912456   12.756141000393   5.618622121368
O   13.102936610709   9.160052957484   1.191575696743
O   12.964162491508   9.058986685563   5.602766607298
O   9.118508830130   11.826703830544   7.846933930480
O   9.030842599479   11.942416567917   3.411330108113
O   10.355936788746   12.679266104197   1.076081132037
O   10.278378076228   7.098521977125   -0.887377551302
O   14.340349453200   8.171941434631   3.412393948792
O   14.274966179381   8.179304089259   7.846921848780
O   14.264109127132   12.727927817270   7.824708031002
O   9.085226974464   9.087253602833   7.867362164314
O   1.352950613811   9.100620320687   3.371698806043
O   5.208383666683   11.792742412119   1.130366570897
O   6.416192079569   12.779025426930   3.356767590778
O   5.213291334957   11.832584885118   5.623540959868
O   2.602257453332   8.177229371674   5.633185202751
O   2.633076339667   12.752298409057   5.598865868917
O   5.209145436046   9.030599019180   1.116962806712
O   5.175721557324   9.099194868632   5.635263827380
O   1.328733222800   11.856201341224   7.839708842294
O   1.343737194426   11.839636624184   3.356404291927
O   2.622020580371   12.736003434964   1.109518389188
O   2.610494307646   8.193202429088   1.121441541037
O   6.442581574492   8.201872858581   3.379001177303
O   6.508086634135   8.168587097681   7.841319358202
O   6.522888403653   12.741793874190   7.860236214511
O   1.312744171830   9.111979852620   7.866050404540
O   1.360779944672   1.769788170915   3.361212525603
O   5.227896446223   4.571262750043   1.093333385180
O   6.502691732704   5.456647107135   3.347990623023
O   5.204047144580   4.556143099552   5.582481296185
O   2.639117599976   0.887058184407   5.614956020869
O   2.606039503908   5.439739599329   5.598275953256
O   5.228242597916   1.823041899627   1.076310337641
O   5.214716031893   1.814442199906   5.603212577213
O   1.293874313657   4.533289287543   7.822299302081
O   1.348842570430   4.506349058389   3.362915249142
O   2.626281498985   5.442128351051   1.108519647912
O   2.646232526467   0.875748619150   1.102465346893
O   6.475504441273   0.909072080167   3.348749112334
O   6.485319131270   0.882506915041   7.851039016880
O   6.509278777797   5.430378880430   7.835819685304
O   1.325696714541   1.792962734385   7.843545599206
O   9.082096960245   1.716895140621   3.330505566446
O   13.078827286629   4.424539357669   1.098297601179
O   14.287428676020   5.425831952595   3.356557927847
O   12.950253336872   4.536323916097   5.585992211394
O   10.397344275046   0.893722066846   5.591609560015
O   10.354910005621   5.410025590634   5.528411819951
O   13.012037537985   1.711329622073   1.125779277725
O   12.981993034375   1.799057639147   5.612093444696
O   9.085494248047   4.496379965987   7.767188508624
O   9.060848142013   4.483124050597   3.287566453675
O   10.396972196284   5.021456294081   0.966895979008
O   10.411136897834   0.812691989368   1.084490112636
O   14.301367288357   0.870690071396   3.396537771330
O   14.280285287224   0.863599184624   7.841269830823
O   14.248682999912   5.450225781119   7.813086372184
O   9.089060906550   1.760318764480   7.842744583308
O   1.313991306194   1.807787759861   12.350504845990
O   5.192815249798   4.482475170191   10.053491028837
O   6.443771764068   5.401859682494   12.324956385570
O   5.179332896295   4.535425322901   14.609791872931
O   2.634293967189   0.881005433948   14.575751058969
O   2.598698603114   5.444424216691   14.568625130217
O   5.159413238493   1.749811624998   10.092120039327
O   5.226006528653   1.777704711650   14.586978502997
O   1.326872771429   4.530230035882   16.813870800786
O   1.333118737289   4.546049691716   12.323167776286
O   2.608795003045   5.419592755963   10.053915701603
O   2.569072185208   0.874310896113   10.098015865517
O   6.470587037197   0.842672045783   12.326470627809
O   6.506783836499   0.787827188431   16.824418472049
O   6.497583824492   5.524123007341   16.802802581807
O   1.326699298359   1.787033704557   16.818299482740
O   9.010718443772   9.084415219104   12.173751349041
O   13.003695166310   11.788076340614   10.083927330604
O   14.296777931314   12.710800310192   12.334801383172
O   12.977696490614   11.770125526169   14.542483643644
O   10.406495278955   8.098297273705   14.237962958662
O   10.388809980380   12.582937346187   14.595019817050
O   13.006845867309   9.057539143850   10.105462619475
O   13.007078363397   9.029790443495   14.527591401508
O   9.007865723594   11.619927287401   16.968513487087
O   9.077845806314   11.806921830892   12.286163627292
O   10.420820318610   12.697697035154   10.084042871714
O   10.436987006273   8.132787382323   10.046548596132
O   14.318047747615   8.108815222142   12.313970451415
O   14.242223152416   8.173509702403   16.818008838984
O   14.281244893599   12.736662339376   16.782613138964
O   8.804566492207   9.177211894310   16.732469461847
O   1.343481472793   9.072246140069   12.302645119742
O   5.188144321450   11.824016952255   10.080477674547
O   6.483085783198   12.701234215993   12.338751980116
O   5.223184442326   11.831879772512   14.621539050370
O   2.611370979764   8.191868265304   14.555760312699
O   2.642588504140   12.733758732511   14.586620260450
O   5.194459376616   9.086321252210   10.049075155667
O   5.214090279788   9.118563166302   14.567003873890
O   1.325291289307   11.827878378692   16.809537258614
O   1.363552696487   11.812615336357   12.339838303385
O   2.612405009167   12.741913902637   10.081836569216
O   2.624661604882   8.158486661184   10.079166160611
O   6.447121867342   8.163889646555   12.284786217541
O   6.530800376237   8.215022645951   16.913206778367
O   6.537305402656   12.677995674550   16.881467622337
O   1.309777225668   9.087969859258   16.810939429162
H   9.544467214255   1.384144392275   11.501575687020
H   9.535183425050   1.372675150751   13.043699253210
H   12.056719018111   4.838149212389   10.017265732949
H   13.402992791355   4.860636207308   9.261028566127
H   13.793017207882   5.024263603110   13.080255672311
H   13.787406190589   5.062335600350   11.533511491414
H   12.030070178645   4.714059160623   14.489963374359
H   12.946499159426   3.476696734843   14.554355450245
H   11.301674494765   1.051378230540   14.519116209718
H   10.413480380963   14.388621289603   14.514117628922
H   9.892417902961   5.001025808940   13.592965101781
H   10.371259079306   6.242780847748   14.363933708479
H   13.444492955900   1.473025880783   9.284512400513
H   12.985508433500   2.735724817635   10.047728432120
H   13.440597468693   1.380498087664   13.793334863201
H   13.433385886379   1.386414524565   15.343414533501
H   9.466546800114   4.675751236526   15.844931436951
H   8.159998667059   4.714118611805   16.664592536609
H   8.097108955999   4.738564784026   12.225944158471
H   8.989906861633   3.469188101361   12.206583575576
H   9.870731344831   5.049522917090   10.754736742974
H   9.909761271335   5.085552163016   9.213819429372
H   11.316024761148   1.148317297094   10.071497706613
H   10.445027051010   14.471886393369   10.069712530492
H   15.174843290763   1.203314102005   12.310460834942
H   13.842878331971   1.186164229457   11.526702008853
H   15.179346394867   1.194637090837   16.831171350570
H   13.847931317300   1.159393664275   17.617953078018
H   13.800249651378   5.112407160650   15.982334700717
H   14.240140950854   6.381437410089   16.755812208941
H   9.546141744424   1.295519594832   15.955352188868
H   9.057777538863   2.569173602239   16.666211890515
H   9.011205279587   10.153527554254   3.496728952499
H   9.493097149465   8.919040781868   2.746932516784
H   13.454089799019   12.183022247414   0.331637284153
H   13.065078096713   10.937218128836   1.148977077775
H   13.821677735181   12.447456688066   2.614528664249
H   13.806704949762   12.401467576791   4.160644288869
H   12.932352750259   10.838357614680   5.597319370592
H   12.046656680053   12.107336798967   5.600538359971
H   9.908246710866   8.516583990049   4.889452012722
H   9.917970802181   8.470051575006   6.423622133513
H   10.396103524147   13.718850462313   5.606334822264
H   9.907042840504   12.483495971398   4.825392918087
H   13.532551012230   8.804499959906   1.980838453960
H   12.165946389919   8.976488745508   1.314707859011
H   13.394977107688   8.742494771832   6.402741829970
H   12.061404860186   8.721661548883   5.617316259050
H   9.546138016479   12.160597178715   7.049127176384
H   8.215233570299   12.159153660095   7.836529977353
H   8.125079978686   12.261690344341   3.355350113106
H   9.472112801680   12.182118610588   2.592338358820
H   10.397423550293   13.642551463752   1.067689295986
H   11.268436498970   12.370648236818   1.109568849534
H   9.444996949448   8.611179165582   -0.753164224536
H   10.424733241853   6.579856695102   -0.091633734315
H   13.841652154999   8.465295215968   4.183429304399
H   14.299691133817   7.209900185670   3.404547263999
H   15.175547275893   8.520279192514   7.860681894233
H   13.846476078425   8.501240618845   8.646839880988
H   13.788256970058   12.391302714381   7.056696696935
H   13.811509082789   12.386628931947   8.602502405717
H   9.113894813250   10.049768380600   7.875146146049
H   9.571116203624   8.782527521646   8.640205656553
H   1.790223402522   8.775641365804   4.165732256766
H   0.449726310642   8.761736997524   3.405881052795
H   5.223908474177   10.831524751251   1.159698902386
H   5.642307922008   12.109100758558   1.932470054543
H   5.992586734590   12.469649797162   4.164766984859
H   6.400410532681   13.741981630796   3.377109551853
H   5.218206491058   10.869011132444   5.643430372670
H   5.676025643173   12.128984368067   6.414239627262
H   2.137496778713   8.477211685268   6.421228927271
H   2.584433993529   7.214194341501   5.642146195096
H   2.204978131955   12.423783539015   4.800866360735
H   3.534511119152   12.412714247011   5.593629417152
H   4.293423033431   8.726239891269   1.136076687850
H   5.629497090360   8.721241302816   1.931538399645
H   5.626487239377   8.752552621519   6.412508565036
H   4.272060833772   8.766338837573   5.664109403064
H   1.764875412058   12.177620621185   7.043265212440
H   0.418901976236   12.171366619143   7.809034302940
H   1.319472501269   10.876321769231   3.363398575354
H   0.427359769435   12.137624995689   3.374758653742
H   3.520553402604   12.392777136415   1.131184807791
H   2.184264539588   12.413394757251   1.905543372468
H   2.146301131701   8.522362132315   1.900111018528
H   2.138621031790   8.526001617800   0.350983568713
H   7.339913827187   8.555902430562   3.411723622941
H   6.002407744120   8.514324965933   4.176860328159
H   6.534195484301   7.205584942638   7.841050816255
H   7.422754505578   8.471910688173   7.845535548725
H   6.054654148167   12.446049922213   8.647473607220
H   6.497998197203   13.704582434108   7.870597475141
H   1.776800227272   8.809114698512   8.653057198437
H   1.334859859494   10.074645529093   7.875912895212
H   1.829131065129   1.437752029386   2.588527685108
H   1.834042919015   1.449964284145   4.136950120301
H   5.658689677284   4.890270673690   1.895038458132
H   4.320387681060   4.893086994997   1.118780823085
H   7.415636363553   5.147801710209   3.323731911153
H   6.530619882062   6.419273378695   3.359048822820
H   5.677986114966   4.887017636310   4.811195169176
H   5.675794133923   4.879240171943   6.357148032665
H   2.662575705757   14.526060942543   5.614624023202
H   3.553767825373   1.189526590562   5.613837105321
H   3.515503595113   5.122949324131   5.580608995475
H   2.181438134565   5.103616839122   4.800953302388
H   5.201758901546   2.785736004530   1.079273142603
H   4.314882436819   1.517509576918   1.084456902965
H   5.218894531701   2.777687206060   5.580118896386
H   5.667347748324   1.520196693115   4.805376594081
H   1.732308588461   4.863683334306   7.030507947306
H   0.389333803922   4.865092741102   7.799069384665
H   1.795129286869   4.812232383394   2.567110873026
H   1.365493828791   3.543447431856   3.339819011409
H   2.597091344005   6.404270785353   1.098240770023
H   2.163697011283   5.143638934808   0.318157448174
H   2.174862209465   1.173893884837   0.317503124417
H   2.634119028584   14.515071687438   1.084496344081
H   6.055988759330   1.248596396598   2.551778082280
H   7.396140492756   1.194159438743   3.324220340568
H   6.001190604789   1.202331405436   8.619274187631
H   6.029570967502   1.221376787177   7.073094184588
H   7.408156478374   5.083981677964   7.834963564003
H   6.075122097821   5.082987698162   8.621500896130
H   1.792152614172   1.494326598290   7.055204999727
H   1.317144769862   2.755744929668   7.812769409381
H   9.558860589149   1.414025310499   4.110554600768
H   9.560860887105   1.386837951603   2.564122035434
H   13.498548565140   4.807046949069   1.876454025015
H   13.523507195154   4.789485589827   0.328201165920
H   15.188340851858   5.090419844046   3.394227608385
H   13.833786993274   5.102003170342   4.141825979849
H   12.031975230819   4.826998941575   5.554277673541
H   12.937031978001   3.573501107169   5.599038420272
H   9.953773508753   1.213197876559   6.383705795391
H   11.299923326083   1.228758144871   5.618632658637
H   9.907276794404   5.128403895005   4.723710009171
H   10.345310459586   6.374091791841   5.533109328619
H   13.461264440498   1.412997924806   1.924181908966
H   13.051441392015   2.674617978348   1.139665294415
H   13.454665780150   1.469419473236   4.839991477247
H   13.450840758543   1.463978907179   6.383435743715
H   9.527970838627   4.792333554153   6.963002404087
H   9.106049529478   3.533859353608   7.764650762207
H   9.529802216747   4.724713396338   2.481204033981
H   9.063049465073   3.521662795477   3.309686311354
H   11.323600838133   4.767742601693   1.007310412597
H   10.000256695360   4.592037824377   0.208856007204
H   11.314484849993   1.146388323598   1.077889216526
H   9.987524102834   1.125614226403   0.278927063013
H   15.217378485150   1.166989450248   3.383203437750
H   14.321262835271   14.509235634591   3.410108896170
H   14.293859650361   14.502457332744   7.837520181152
H   15.196921578886   1.158441940985   7.839099564790
H   14.248526426462   6.413812375407   7.800469996200
H   13.781304221134   5.157899554861   7.022332479299
H   9.528481739985   1.423377451945   8.629656347960
H   8.181137420737   1.440843873516   7.868117953288
H   1.336061540444   2.770534830711   12.367348661739
H   1.781305122913   1.503195861155   13.135167139942
H   5.192257409997   3.519383660013   10.084006050099
H   5.623211917197   4.783395044478   10.859695553780
H   5.995610858116   5.121249441432   13.129428207325
H   6.440183098035   6.363762412917   12.326441800442
H   5.178797643172   3.572746995514   14.612445061359
H   4.258333772265   4.818003523192   14.594107902227
H   3.552596920306   1.170780295714   14.580379608429
H   2.649038018743   14.520464016147   14.577899466986
H   2.599011818313   6.407030162988   14.549790937684
H   2.148172675252   5.154027665768   13.767545616547
H   5.596786125838   1.412607742393   10.880673649629
H   4.250579769855   1.430663157819   10.116561117399
H   5.692068611621   1.426311199997   15.352201665656
H   5.684398600605   1.447860886328   13.806705582487
H   0.418439699018   4.849834629582   16.781104381943
H   1.758517764966   4.861346433240   16.019219813928
H   0.419043897358   4.849210691208   12.294865984204
H   1.760861240396   4.862048654736   11.520121183140
H   3.506204650536   5.071267637644   10.030994601814
H   2.163812505727   5.099064240667   9.261534164828
H   2.114838634992   1.215942097846   9.319624603428
H   2.103358533425   1.213377132242   10.869462013286
H   6.487926933022   14.482181164727   12.329937973340
H   7.390185367133   1.129627035415   12.298453951266
H   7.424304628031   1.084992699805   16.827687818932
H   6.083453552418   1.167755468943   17.602278921962
H   6.052978119138   5.181568257886   17.587750792214
H   6.010234738235   5.181540525354   16.044792711048
H   1.335856189770   2.750077695063   16.800373843787
H   1.785426050123   1.491096733455   16.025472870119
H   8.094306148168   8.786535759311   12.202036456526
H   9.002167876557   10.047929324731   12.194647120748
H   13.462391424006   12.096292422844   10.871864465321
H   13.020192060581   10.825024439099   10.113229477419
H   14.311621496317   13.674061942170   12.325425118713
H   15.214837755972   12.420404475913   12.335711901420
H   13.439027303274   12.085069177429   13.757066051551
H   13.012417291515   10.808279186543   14.519175479617
H   9.904672923864   8.356537327844   14.997602558607
H   9.927502005888   8.458189593841   13.478924631156
H   9.973721950366   12.256775906048   15.390824527931
H   11.303186181125   12.271482391626   14.603781134840
H   13.444282267897   8.705257868222   10.887553322041
H   12.105590110836   8.717010320864   10.112068882631
H   12.112739805486   8.685946086396   14.471504679345
H   13.394186363645   8.711308101259   15.351209824942
H   9.494814388870   11.976152982786   17.733449862750
H   8.133538263451   12.042410958135   16.960079597712
H   9.555467112902   12.085934416430   13.072024434214
H   9.564620107733   12.143183197209   11.524000231676
H   9.983976651937   12.383787978877   9.283630362341
H   11.322080391009   12.357462854275   10.064183180722
H   9.924965192787   8.435350504242   10.802424533010
H   10.397541694944   7.169575927508   10.047962566207
H   14.293132882525   7.145834324788   12.335370419326
H   13.870554833743   8.412784342499   13.110417599480
H   15.147201976984   8.501959228138   16.825238298192
H   13.828998007795   8.501558325323   17.623704786268
H   13.820942575759   12.423231462853   15.999172212747
H   14.265024518071   13.699967823899   16.756843882979
H   8.903017988436   10.186073927660   16.922992040307
H   7.858209681646   8.796763787976   16.854116332844
H   1.783424380778   8.735619468921   11.513609991223
H   0.444639697819   8.725780240260   12.285991919307
H   5.615242093906   12.137721611809   10.883566445325
H   4.285771945157   12.162237836424   10.092651630057
H   6.070268668530   12.381739368215   13.146913303281
H   7.390013700983   12.378880053940   12.337572178234
H   4.317575560599   12.163796173385   14.634012384744
H   5.654261575457   12.157121837152   15.418363783399
H   2.179506071125   8.511890371651   13.755283641469
H   3.511910259497   8.526000377647   14.536252072226
H   2.185548127504   12.396937127090   13.808269722271
H   2.158779018009   12.411379613376   15.355304953054
H   5.200263355399   10.049494048547   10.030089875343
H   5.665329587350   8.785403240379   9.263061285858
H   5.644144737942   8.818097649081   15.366702916536
H   5.220698296573   10.083329668347   14.599978637418
H   0.420612276460   12.159836217518   16.824119255378
H   1.756576699694   12.152130135639   17.607249111457
H   1.362838121434   10.849986586701   12.305746846382
H   1.803869731157   12.117234007976   11.538927280235
H   2.584501553432   13.704941547625   10.072911746439
H   2.153603341367   12.448770564180   9.286371388240
H   2.645781422293   7.195406541779   10.063975165358
H   3.539593651757   8.459202779305   10.061388046450
H   5.973886487696   8.492563720644   11.511002264822
H   5.996461668880   8.510222849970   13.059649651998
H   6.039504084821   8.482293429598   17.712055352451
H   6.525657290684   7.243070619734   16.883593689805
H   6.056824906484   12.386552821106   17.667163535286
H   6.517168681302   13.643979923500   16.886610025847
H   1.321629930150   10.050903559201   16.789416652122
H   1.766285002603   8.789634701250   16.018173335964
