383
 generated by VMD
 O         9.127249        1.717007       12.320382
 O        12.988384        4.521658       10.029202
 O        14.246827        5.412689       12.285497
 O        13.047102        4.462927       14.554311
 O        10.409899        0.779514       14.550759
 O        10.491560        5.408431       14.565672
 O        12.988873        1.778454       10.038485
 O        12.984181        1.720533       14.560922
 O         9.234637        4.392724       16.816725
 O         9.232543        4.451811       12.366426
 O        10.392731        5.404313       10.033585
 O        10.403723        0.860949       10.035892
 O        14.257858        0.871844       12.289237
 O        14.275337        0.836796       16.819164
 O        14.255523        5.415238       16.815275
 O         9.130303        1.689907       16.786457
 O         9.073376        9.047551        3.313697
 O        12.982965       11.776439        1.105898
 O        14.249115       12.711404        3.340273
 O        12.939813       11.824472        5.581264
 O        10.367142        8.180187        5.560546
 O        10.375998       12.745031        5.571117
 O        12.964867        9.047508        1.101212
 O        12.945504        9.087057        5.575138
 O         9.099195       11.831185        7.820554
 O         9.082449       11.781798        3.364282
 O        10.400370       12.709637        1.148064
 O        10.396511        8.135838        1.090126
 O        14.253953        8.172155        3.357407
 O        14.264171        8.171150        7.798350
 O        14.249667       12.712672        7.816622
 O         9.073876        9.098062        7.788485
 O         1.310753        9.074358        3.362720
 O         5.170295       11.917250        1.132172
 O         6.515207       12.729819        3.337740
 O         5.223922       11.814994        5.565208
 O         2.607829        8.150590        5.571547
 O         2.635306       12.744782        5.562399
 O         5.163758        9.157963        1.185029
 O         5.201526        9.078166        5.524641
 O         1.315069       11.831942        7.788715
 O         1.299404       11.802484        3.354132
 O         2.541751       12.724563        1.091195
 O         2.633565        8.185860        1.119537
 O         6.495421        8.161681        3.315054
 O         6.494443        8.171578        7.761540
 O         6.499414       12.712077        7.807564
 O         1.307483        9.094978        7.792671
 O         1.309384        1.772450        3.333232
 O         5.148724        4.451378        1.192995
 O         6.498045        5.426607        3.315280
 O         5.191988        4.497033        5.541159
 O         2.626912        0.877463        5.571620
 O         2.605297        5.418520        5.536478
 O         5.174080        1.708592        1.119054
 O         5.226347        1.757702        5.597406
 O         1.265034        4.512717        7.748701
 O         1.297777        4.511756        3.318603
 O         2.583503        5.447946        1.084936
 O         2.569407        0.842141        1.098943
 O         6.518985        0.856503        3.362678
 O         6.490536        0.841512        7.839300
 O         6.493929        5.440802        7.768131
 O         1.311165        1.771104        7.796554
 O         9.094582        1.802805        3.296315
 O        12.980848        4.499408        1.110660
 O        14.258247        5.433165        3.344139
 O        12.957398        4.515682        5.558088
 O        10.367802        0.873567        5.521735
 O        10.383932        5.438899        5.563717
 O        13.009089        1.764117        1.106716
 O        12.965778        1.773530        5.568038
 O         9.089141        4.499360        7.796771
 O         9.075781        4.528321        3.322774
 O        10.413415        5.393909        1.096371
 O        10.422863        0.840314        1.104564
 O        14.264737        0.843394        3.354435
 O        14.257812        0.854883        7.803639
 O        14.230820        5.443117        7.781194
 O         9.087470        1.755004        7.785339
 O         1.303539        1.792893       12.294414
 O         5.137015        4.464377       10.021838
 O         6.800928        5.504070       12.728124
 O         5.035378        4.309706       14.561872
 O         2.545041        0.855844       14.550015
 O         2.542955        5.405510       14.536876
 O         5.190757        1.770205       10.091706
 O         5.169171        1.599985       14.553938
 O         1.300196        4.514411       16.812296
 O         1.285815        4.536812       12.268901
 O         2.528037        5.435889        9.982461
 O         2.602858        0.868599       10.057545
 O         6.515271        0.828802       12.303761
 O         6.518313        0.839581       16.812065
 O         6.646951        4.821220       16.835407
 O         1.308203        1.782665       16.799751
 O         9.122067        9.111555       12.251281
 O        12.946627       11.790210       10.045408
 O        14.242007       12.736135       12.277262
 O        13.001864       11.807931       14.558634
 O        10.431311        8.160492       14.501754
 O        10.389743       12.648673       14.571438
 O        12.971762        9.046769       10.059229
 O        13.011571        9.077073       14.561532
 O         9.102391       11.819643       16.830267
 O         9.082102       11.832231       12.311465
 O        10.371374       12.729548       10.070891
 O        10.385939        8.154544       10.008587
 O        14.260779        8.151615       12.310847
 O        14.281996        8.150863       16.814096
 O        14.264618       12.705193       16.804367
 O         9.178885        9.066597       16.794155
 O         1.296567        9.087717       12.303846
 O         5.178087       11.815427       10.026395
 O         6.482932       12.712949       12.267723
 O         5.160506       11.899157       14.545448
 O         2.586909        8.154601       14.549171
 O         2.545323       12.723970       14.556020
 O         5.176392        9.070442        9.999763
 O         5.167187        9.160933       14.454870
 O         1.295803       11.769464       16.797089
 O         1.289696       11.835634       12.294785
 O         2.596005       12.729296       10.048418
 O         2.575776        8.193076       10.042816
 O         6.495425        8.262361       12.282924
 O         6.416389        8.571812       16.908615
 O         6.492597       12.711723       16.811747
 O         1.335179        9.037885       16.812778
 H         9.593777        1.359674       13.084416
 H         9.592544        1.410828       11.535043
 H        13.413736        4.852895       10.828415
 H        12.078472        4.836938       10.047395
 H        15.166427        5.122742       12.273501
 H        14.264871        6.376013       12.302335
 H        13.483500        4.763524       13.749586
 H        13.030583        3.500385       14.528383
 H         9.948814        1.080798       15.342773
 H        10.393711       14.418507       14.573220
 H        11.410257        5.119706       14.575319
 H        10.493424        6.371031       14.543593
 H        13.434758        1.485670       10.840842
 H        13.001611        2.741717       10.052177
 H        13.415349        1.395861       15.358513
 H        12.082442        1.380824       14.574796
 H         8.286661        4.605572       16.794868
 H         9.634819        4.776458       16.033012
 H         9.219909        3.488039       12.380892
 H         9.735455        4.745337       13.136948
 H         9.913393        5.066145        9.269093
 H         9.957503        5.057454       10.816865
 H         9.961201        1.183763        9.244072
 H        11.305711        1.197776       10.010183
 H        13.830000        1.176159       13.096886
 H        15.162327        1.203387       12.309415
 H        13.845603        1.175298       17.612646
 H        15.174052        1.184475       16.824631
 H        13.780875        5.080636       17.584042
 H        13.815536        5.064438       16.033659
 H         9.587481        1.391378       17.578966
 H         9.188955        2.654155       16.790688
 H         9.514948        8.718898        2.522643
 H         8.168393        8.714771        3.285050
 H        12.984660       10.812776        1.077479
 H        13.427026       12.080935        0.307419
 H        13.826128       12.371449        2.544023
 H        15.154260       12.381511        3.335773
 H        12.039578       12.168638        5.557231
 H        13.381172       12.143670        4.787117
 H         9.895176        8.519438        6.329129
 H         9.892607        8.489765        4.780688
 H        10.355518       13.707426        5.526799
 H         9.909795       12.418762        4.793351
 H        13.409375        8.714211        0.314262
 H        12.060248        8.712791        1.073706
 H        12.916533       10.049950        5.581089
 H        12.030656        8.783464        5.573360
 H         9.556685       12.162338        8.601262
 H         9.571867       12.169115        7.052614
 H         9.055145       10.818475        3.348083
 H         8.168796       12.087684        3.343533
 H         9.962282       12.372674        1.936943
 H        11.298140       12.362164        1.154140
 H         9.950777        8.439254        0.289156
 H        10.379751        7.172942        1.068642
 H        13.777225        8.511777        4.122887
 H        13.787387        8.489496        2.576547
 H        13.815762        8.506507        7.014621
 H        15.166482        8.508098        7.771887
 H        13.772594       12.387920        7.045389
 H        13.786477       12.372015        8.589760
 H         9.537253        8.780387        8.571006
 H         9.095845       10.060819        7.825782
 H         1.747138        8.728257        4.149623
 H         0.405605        8.746416        3.378920
 H         4.260029       12.224385        1.086436
 H         5.606989       12.193707        0.319034
 H         6.034433       12.465436        2.544012
 H         6.521641       13.693304        3.343429
 H         5.220985       10.851999        5.532269
 H         5.679034       12.117587        4.771229
 H         2.158556        8.453443        6.367921
 H         2.598421        7.187278        5.589097
 H         3.549444       12.441797        5.567378
 H         2.659579       13.707949        5.563752
 H         5.157190       10.118536        1.198129
 H         5.625000        8.920844        0.360751
 H         5.634794        8.733878        4.733980
 H         4.299126        8.743394        5.518349
 H         0.408039       12.155409        7.772819
 H         1.753122       12.170856        7.000964
 H         1.773481       12.117289        4.131030
 H         1.318477       10.839246        3.387102
 H         2.089230       12.366023        0.320135
 H         2.089413       12.382810        1.869642
 H         2.184472        8.511280        1.905512
 H         3.534675        8.533762        1.151166
 H         6.026197        8.486174        2.534546
 H         6.475720        7.199059        3.279374
 H         6.057941        8.502353        6.968351
 H         7.395036        8.513803        7.750982
 H         7.407976       12.392589        7.793432
 H         6.073254       12.382139        7.008373
 H         1.320219       10.058262        7.803214
 H         1.754686        8.803935        8.594985
 H         0.409867        1.428475        3.327221
 H         1.737220        1.438547        2.536495
 H         5.104827        3.490669        1.177832
 H         4.247956        4.782860        1.140106
 H         6.033567        5.097470        4.091215
 H         6.019099        5.078781        2.551825
 H         5.220346        3.534968        5.577887
 H         5.647426        4.814894        6.327087
 H         2.158029        1.206043        4.797164
 H         2.150230        1.203719        6.343095
 H         2.171624        5.090885        4.740690
 H         3.507801        5.082324        5.522758
 H         4.274230        1.367856        1.133064
 H         5.612266        1.390446        1.914217
 H         5.646850        1.423227        6.397298
 H         4.317175        1.440238        5.607302
 H         1.712146        4.837810        6.959585
 H         0.363670        4.853128        7.726440
 H         0.382540        4.812000        3.330640
 H         1.276890        3.548765        3.314707
 H         2.124727        5.153855        1.878120
 H         2.609895        6.410717        1.115388
 H         2.131170        1.159009        0.301732
 H         2.533741       14.481316        1.072352
 H         7.415447        1.207691        3.352139
 H         6.093860        1.188691        4.160550
 H         6.040094        1.140599        8.634864
 H         6.478713       14.479783        7.856489
 H         6.486730        6.405761        7.777554
 H         6.030222        5.152466        8.555250
 H         1.274752        2.733659        7.784369
 H         0.398803        1.461895        7.800605
 H         9.557356        1.497874        2.508502
 H         9.098494        2.766490        3.275297
 H        13.417138        4.847614        1.895509
 H        12.072068        4.823255        1.132622
 H        14.249567        6.396191        3.369233
 H        13.794265        5.131055        4.133215
 H        12.051464        4.844204        5.574665
 H        13.385753        4.854592        6.352583
 H         9.943775        1.219594        4.728080
 H        11.273377        1.200369        5.520196
 H         9.926807        5.131725        6.353641
 H        10.368770        6.401908        5.588731
 H        13.008269        2.727642        1.128092
 H        13.455088        1.466654        1.907030
 H        12.979567        2.736578        5.585228
 H        13.414404        1.473210        6.366060
 H         8.175868        4.802196        7.785925
 H         9.063400        3.536109        7.783786
 H         8.170276        4.860072        3.336987
 H         9.510118        4.861772        4.114313
 H         9.920623        5.082492        1.862361
 H         9.969476        5.039360        0.314947
 H        11.338018        1.139007        1.104885
 H        10.441421       14.479589        1.129593
 H        14.242622       14.482505        3.366889
 H        13.805103        1.146168        4.145399
 H        14.241682       14.494074        7.825079
 H        13.809595        1.156600        8.601717
 H        13.793978        5.141195        8.585876
 H        14.231520        6.406605        7.808246
 H         9.508061        1.430745        6.981927
 H         8.186137        1.416720        7.787103
 H         1.314312        2.755554       12.262616
 H         1.758582        1.485026       11.503141
 H         5.472381        4.768411       10.849535
 H         5.168095        3.495232       10.058516
 H         5.609092        4.634964       13.880064
 H         7.688034        5.118951       12.618261
 H         5.076460        3.347191       14.529185
 H         6.052312        4.698020       16.101528
 H         3.470968        1.121428       14.527449
 H         2.134095        1.204055       13.751307
 H         3.426760        5.024081       14.558840
 H         2.099955        5.097826       15.335165
 H         5.632895        1.430688       10.878481
 H         4.285850        1.436666       10.107559
 H         5.659811        1.324761       15.336691
 H         5.666337        1.297736       13.786199
 H         1.743609        4.863111       17.594265
 H         0.393627        4.838685       16.839983
 H         1.746025        4.873913       11.493824
 H         1.750884        4.862704       13.048186
 H         2.076857        5.113364        9.192686
 H         3.416977        5.078594        9.946286
 H         2.588504       14.507313       10.033276
 H         2.154205        1.171519        9.260934
 H         6.534942       14.466737       12.273687
 H         7.431946        1.123856       12.304853
 H         6.075662        1.177689       17.596737
 H         7.419256        1.180540       16.826052
 H         6.119785        4.787718       17.632000
 H         1.319777        2.746494       16.788794
 H         1.753230        1.488908       15.997155
 H         9.535756        8.766762       11.452641
 H         8.205657        8.820822       12.241618
 H        12.931930       10.827153       10.055729
 H        12.030097       12.086637       10.053898
 H        13.777787       12.426182       11.492576
 H        14.231079       13.698897       12.250351
 H        13.470572       12.152506       15.327034
 H        13.450572       12.147289       13.777599
 H         9.996152        8.492162       13.711249
 H        11.330077        8.505385       14.494012
 H        11.297557       12.328856       14.592391
 H         9.958055       12.338585       15.375422
 H        13.449251        8.729457        9.285542
 H        13.439486        8.719833       10.835383
 H        13.458579        8.771437       15.357979
 H        13.025979       10.040112       14.584385
 H         9.522653       12.146942       17.631224
 H         8.189037       12.124401       16.843983
 H         9.114450       10.868997       12.298457
 H         9.537321       12.107306       13.114699
 H        10.375103       13.692967       10.078484
 H         9.910919       12.445242       10.868281
 H        10.401057        7.191928       10.016127
 H        11.305097        8.443598       10.023917
 H        15.162955        8.490326       12.322714
 H        13.834245        8.483463       13.108534
 H        14.291140        7.187586       16.807457
 H        15.202435        8.436457       16.818796
 H        15.177357       12.395729       16.805811
 H        14.295169       13.668334       16.820560
 H         9.605437        8.769658       15.986053
 H         9.178674       10.027477       16.777351
 H         1.753072        8.793208       11.508729
 H         1.304730       10.050500       12.285130
 H         5.183077       10.852704        9.998372
 H         5.645199       12.113843        9.237985
 H         6.054509       12.379099       11.472319
 H         7.385208       12.375504       12.266818
 H         5.591441       12.207453       13.742565
 H         4.253611       12.221272       14.523619
 H         2.582690        7.192037       14.526181
 H         2.125162        8.453543       13.759494
 H         2.513213       13.686801       14.541941
 H         2.099685       12.424176       13.755932
 H         5.655657        8.761458       10.773829
 H         5.653135        8.747655        9.227296
 H         4.266519        8.827419       14.493684
 H         5.116820       10.121183       14.489944
 H         1.323537       10.805953       16.779591
 H         1.748577       12.077070       16.004055
 H         1.731083       12.160837       11.503048
 H         0.383391       12.161169       12.262000
 H         3.501427       12.399743       10.026872
 H         2.165164       12.401312        9.252150
 H         2.580664        7.230919       10.020678
 H         3.497295        8.473445       10.028905
 H         6.015596        8.597930       13.054084
 H         6.555473        7.322345       12.403151
 H         7.362854        8.669068       16.826927
 H         6.031512        8.729424       16.049332
 H         6.498782       13.674883       16.791052
 H         6.032658       12.424590       16.016344
 H         1.798272        8.707541       16.034609
 H         1.820992        8.728052       17.585663
383
 generated by VMD
 O         9.127249        1.717007       12.320382
 O        12.988384        4.521658       10.029202
 O        14.246827        5.412689       12.285497
 O        13.047102        4.462927       14.554311
 O        10.409899        0.779514       14.550759
 O        10.491560        5.408431       14.565672
 O        12.988873        1.778454       10.038485
 O        12.984181        1.720533       14.560922
 O         9.234637        4.392724       16.816725
 O         9.232543        4.451811       12.366426
 O        10.392731        5.404313       10.033585
 O        10.403723        0.860949       10.035892
 O        14.257858        0.871844       12.289237
 O        14.275337        0.836796       16.819164
 O        14.255523        5.415238       16.815275
 O         9.130303        1.689907       16.786457
 O         9.073376        9.047551        3.313697
 O        12.982965       11.776439        1.105898
 O        14.249115       12.711404        3.340273
 O        12.939813       11.824472        5.581264
 O        10.367142        8.180187        5.560546
 O        10.375998       12.745031        5.571117
 O        12.964867        9.047508        1.101212
 O        12.945504        9.087057        5.575138
 O         9.099195       11.831185        7.820554
 O         9.082449       11.781798        3.364282
 O        10.400370       12.709637        1.148064
 O        10.396511        8.135838        1.090126
 O        14.253953        8.172155        3.357407
 O        14.264171        8.171150        7.798350
 O        14.249667       12.712672        7.816622
 O         9.073876        9.098062        7.788485
 O         1.310753        9.074358        3.362720
 O         5.170295       11.917250        1.132172
 O         6.515207       12.729819        3.337740
 O         5.223922       11.814994        5.565208
 O         2.607829        8.150590        5.571547
 O         2.635306       12.744782        5.562399
 O         5.163758        9.157963        1.185029
 O         5.201526        9.078166        5.524641
 O         1.315069       11.831942        7.788715
 O         1.299404       11.802484        3.354132
 O         2.541751       12.724563        1.091195
 O         2.633565        8.185860        1.119537
 O         6.495421        8.161681        3.315054
 O         6.494443        8.171578        7.761540
 O         6.499414       12.712077        7.807564
 O         1.307483        9.094978        7.792671
 O         1.309384        1.772450        3.333232
 O         5.148724        4.451378        1.192995
 O         6.498045        5.426607        3.315280
 O         5.191988        4.497033        5.541159
 O         2.626912        0.877463        5.571620
 O         2.605297        5.418520        5.536478
 O         5.174080        1.708592        1.119054
 O         5.226347        1.757702        5.597406
 O         1.265034        4.512717        7.748701
 O         1.297777        4.511756        3.318603
 O         2.583503        5.447946        1.084936
 O         2.569407        0.842141        1.098943
 O         6.518985        0.856503        3.362678
 O         6.490536        0.841512        7.839300
 O         6.493929        5.440802        7.768131
 O         1.311165        1.771104        7.796554
 O         9.094582        1.802805        3.296315
 O        12.980848        4.499408        1.110660
 O        14.258247        5.433165        3.344139
 O        12.957398        4.515682        5.558088
 O        10.367802        0.873567        5.521735
 O        10.383932        5.438899        5.563717
 O        13.009089        1.764117        1.106716
 O        12.965778        1.773530        5.568038
 O         9.089141        4.499360        7.796771
 O         9.075781        4.528321        3.322774
 O        10.413415        5.393909        1.096371
 O        10.422863        0.840314        1.104564
 O        14.264737        0.843394        3.354435
 O        14.257812        0.854883        7.803639
 O        14.230820        5.443117        7.781194
 O         9.087470        1.755004        7.785339
 O         1.303539        1.792893       12.294414
 O         5.137015        4.464377       10.021838
 O         6.800928        5.504070       12.728124
 O         5.035378        4.309706       14.561872
 O         2.545041        0.855844       14.550015
 O         2.542955        5.405510       14.536876
 O         5.190757        1.770205       10.091706
 O         5.169171        1.599985       14.553938
 O         1.300196        4.514411       16.812296
 O         1.285815        4.536812       12.268901
 O         2.528037        5.435889        9.982461
 O         2.602858        0.868599       10.057545
 O         6.515271        0.828802       12.303761
 O         6.518313        0.839581       16.812065
 O         6.646951        4.821220       16.835407
 O         1.308203        1.782665       16.799751
 O         9.122067        9.111555       12.251281
 O        12.946627       11.790210       10.045408
 O        14.242007       12.736135       12.277262
 O        13.001864       11.807931       14.558634
 O        10.431311        8.160492       14.501754
 O        10.389743       12.648673       14.571438
 O        12.971762        9.046769       10.059229
 O        13.011571        9.077073       14.561532
 O         9.102391       11.819643       16.830267
 O         9.082102       11.832231       12.311465
 O        10.371374       12.729548       10.070891
 O        10.385939        8.154544       10.008587
 O        14.260779        8.151615       12.310847
 O        14.281996        8.150863       16.814096
 O        14.264618       12.705193       16.804367
 O         9.178885        9.066597       16.794155
 O         1.296567        9.087717       12.303846
 O         5.178087       11.815427       10.026395
 O         6.482932       12.712949       12.267723
 O         5.160506       11.899157       14.545448
 O         2.586909        8.154601       14.549171
 O         2.545323       12.723970       14.556020
 O         5.176392        9.070442        9.999763
 O         5.167187        9.160933       14.454870
 O         1.295803       11.769464       16.797089
 O         1.289696       11.835634       12.294785
 O         2.596005       12.729296       10.048418
 O         2.575776        8.193076       10.042816
 O         6.495425        8.262361       12.282924
 O         6.416389        8.571812       16.908615
 O         6.492597       12.711723       16.811747
 O         1.335179        9.037885       16.812778
 H         9.593777        1.359674       13.084416
 H         9.592544        1.410828       11.535043
 H        13.413736        4.852895       10.828415
 H        12.078472        4.836938       10.047395
 H        15.166427        5.122742       12.273501
 H        14.264871        6.376013       12.302335
 H        13.483500        4.763524       13.749586
 H        13.030583        3.500385       14.528383
 H         9.948814        1.080798       15.342773
 H        10.393711       14.418507       14.573220
 H        11.410257        5.119706       14.575319
 H        10.493424        6.371031       14.543593
 H        13.434758        1.485670       10.840842
 H        13.001611        2.741717       10.052177
 H        13.415349        1.395861       15.358513
 H        12.082442        1.380824       14.574796
 H         8.286661        4.605572       16.794868
 H         9.634819        4.776458       16.033012
 H         9.219909        3.488039       12.380892
 H         9.735455        4.745337       13.136948
 H         9.913393        5.066145        9.269093
 H         9.957503        5.057454       10.816865
 H         9.961201        1.183763        9.244072
 H        11.305711        1.197776       10.010183
 H        13.830000        1.176159       13.096886
 H        15.162327        1.203387       12.309415
 H        13.845603        1.175298       17.612646
 H        15.174052        1.184475       16.824631
 H        13.780875        5.080636       17.584042
 H        13.815536        5.064438       16.033659
 H         9.587481        1.391378       17.578966
 H         9.188955        2.654155       16.790688
 H         9.514948        8.718898        2.522643
 H         8.168393        8.714771        3.285050
 H        12.984660       10.812776        1.077479
 H        13.427026       12.080935        0.307419
 H        13.826128       12.371449        2.544023
 H        15.154260       12.381511        3.335773
 H        12.039578       12.168638        5.557231
 H        13.381172       12.143670        4.787117
 H         9.895176        8.519438        6.329129
 H         9.892607        8.489765        4.780688
 H        10.355518       13.707426        5.526799
 H         9.909795       12.418762        4.793351
 H        13.409375        8.714211        0.314262
 H        12.060248        8.712791        1.073706
 H        12.916533       10.049950        5.581089
 H        12.030656        8.783464        5.573360
 H         9.556685       12.162338        8.601262
 H         9.571867       12.169115        7.052614
 H         9.055145       10.818475        3.348083
 H         8.168796       12.087684        3.343533
 H         9.962282       12.372674        1.936943
 H        11.298140       12.362164        1.154140
 H         9.950777        8.439254        0.289156
 H        10.379751        7.172942        1.068642
 H        13.777225        8.511777        4.122887
 H        13.787387        8.489496        2.576547
 H        13.815762        8.506507        7.014621
 H        15.166482        8.508098        7.771887
 H        13.772594       12.387920        7.045389
 H        13.786477       12.372015        8.589760
 H         9.537253        8.780387        8.571006
 H         9.095845       10.060819        7.825782
 H         1.747138        8.728257        4.149623
 H         0.405605        8.746416        3.378920
 H         4.260029       12.224385        1.086436
 H         5.606989       12.193707        0.319034
 H         6.034433       12.465436        2.544012
 H         6.521641       13.693304        3.343429
 H         5.220985       10.851999        5.532269
 H         5.679034       12.117587        4.771229
 H         2.158556        8.453443        6.367921
 H         2.598421        7.187278        5.589097
 H         3.549444       12.441797        5.567378
 H         2.659579       13.707949        5.563752
 H         5.157190       10.118536        1.198129
 H         5.625000        8.920844        0.360751
 H         5.634794        8.733878        4.733980
 H         4.299126        8.743394        5.518349
 H         0.408039       12.155409        7.772819
 H         1.753122       12.170856        7.000964
 H         1.773481       12.117289        4.131030
 H         1.318477       10.839246        3.387102
 H         2.089230       12.366023        0.320135
 H         2.089413       12.382810        1.869642
 H         2.184472        8.511280        1.905512
 H         3.534675        8.533762        1.151166
 H         6.026197        8.486174        2.534546
 H         6.475720        7.199059        3.279374
 H         6.057941        8.502353        6.968351
 H         7.395036        8.513803        7.750982
 H         7.407976       12.392589        7.793432
 H         6.073254       12.382139        7.008373
 H         1.320219       10.058262        7.803214
 H         1.754686        8.803935        8.594985
 H         0.409867        1.428475        3.327221
 H         1.737220        1.438547        2.536495
 H         5.104827        3.490669        1.177832
 H         4.247956        4.782860        1.140106
 H         6.033567        5.097470        4.091215
 H         6.019099        5.078781        2.551825
 H         5.220346        3.534968        5.577887
 H         5.647426        4.814894        6.327087
 H         2.158029        1.206043        4.797164
 H         2.150230        1.203719        6.343095
 H         2.171624        5.090885        4.740690
 H         3.507801        5.082324        5.522758
 H         4.274230        1.367856        1.133064
 H         5.612266        1.390446        1.914217
 H         5.646850        1.423227        6.397298
 H         4.317175        1.440238        5.607302
 H         1.712146        4.837810        6.959585
 H         0.363670        4.853128        7.726440
 H         0.382540        4.812000        3.330640
 H         1.276890        3.548765        3.314707
 H         2.124727        5.153855        1.878120
 H         2.609895        6.410717        1.115388
 H         2.131170        1.159009        0.301732
 H         2.533741       14.481316        1.072352
 H         7.415447        1.207691        3.352139
 H         6.093860        1.188691        4.160550
 H         6.040094        1.140599        8.634864
 H         6.478713       14.479783        7.856489
 H         6.486730        6.405761        7.777554
 H         6.030222        5.152466        8.555250
 H         1.274752        2.733659        7.784369
 H         0.398803        1.461895        7.800605
 H         9.557356        1.497874        2.508502
 H         9.098494        2.766490        3.275297
 H        13.417138        4.847614        1.895509
 H        12.072068        4.823255        1.132622
 H        14.249567        6.396191        3.369233
 H        13.794265        5.131055        4.133215
 H        12.051464        4.844204        5.574665
 H        13.385753        4.854592        6.352583
 H         9.943775        1.219594        4.728080
 H        11.273377        1.200369        5.520196
 H         9.926807        5.131725        6.353641
 H        10.368770        6.401908        5.588731
 H        13.008269        2.727642        1.128092
 H        13.455088        1.466654        1.907030
 H        12.979567        2.736578        5.585228
 H        13.414404        1.473210        6.366060
 H         8.175868        4.802196        7.785925
 H         9.063400        3.536109        7.783786
 H         8.170276        4.860072        3.336987
 H         9.510118        4.861772        4.114313
 H         9.920623        5.082492        1.862361
 H         9.969476        5.039360        0.314947
 H        11.338018        1.139007        1.104885
 H        10.441421       14.479589        1.129593
 H        14.242622       14.482505        3.366889
 H        13.805103        1.146168        4.145399
 H        14.241682       14.494074        7.825079
 H        13.809595        1.156600        8.601717
 H        13.793978        5.141195        8.585876
 H        14.231520        6.406605        7.808246
 H         9.508061        1.430745        6.981927
 H         8.186137        1.416720        7.787103
 H         1.314312        2.755554       12.262616
 H         1.758582        1.485026       11.503141
 H         5.472381        4.768411       10.849535
 H         5.168095        3.495232       10.058516
 H         5.609092        4.634964       13.880064
 H         7.688034        5.118951       12.618261
 H         5.076460        3.347191       14.529185
 H         6.052312        4.698020       16.101528
 H         3.470968        1.121428       14.527449
 H         2.134095        1.204055       13.751307
 H         3.426760        5.024081       14.558840
 H         2.099955        5.097826       15.335165
 H         5.632895        1.430688       10.878481
 H         4.285850        1.436666       10.107559
 H         5.659811        1.324761       15.336691
 H         5.666337        1.297736       13.786199
 H         1.743609        4.863111       17.594265
 H         0.393627        4.838685       16.839983
 H         1.746025        4.873913       11.493824
 H         1.750884        4.862704       13.048186
 H         2.076857        5.113364        9.192686
 H         3.416977        5.078594        9.946286
 H         2.588504       14.507313       10.033276
 H         2.154205        1.171519        9.260934
 H         6.534942       14.466737       12.273687
 H         7.431946        1.123856       12.304853
 H         6.075662        1.177689       17.596737
 H         7.419256        1.180540       16.826052
 H         6.119785        4.787718       17.632000
 H         1.319777        2.746494       16.788794
 H         1.753230        1.488908       15.997155
 H         9.535756        8.766762       11.452641
 H         8.205657        8.820822       12.241618
 H        12.931930       10.827153       10.055729
 H        12.030097       12.086637       10.053898
 H        13.777787       12.426182       11.492576
 H        14.231079       13.698897       12.250351
 H        13.470572       12.152506       15.327034
 H        13.450572       12.147289       13.777599
 H         9.996152        8.492162       13.711249
 H        11.330077        8.505385       14.494012
 H        11.297557       12.328856       14.592391
 H         9.958055       12.338585       15.375422
 H        13.449251        8.729457        9.285542
 H        13.439486        8.719833       10.835383
 H        13.458579        8.771437       15.357979
 H        13.025979       10.040112       14.584385
 H         9.522653       12.146942       17.631224
 H         8.189037       12.124401       16.843983
 H         9.114450       10.868997       12.298457
 H         9.537321       12.107306       13.114699
 H        10.375103       13.692967       10.078484
 H         9.910919       12.445242       10.868281
 H        10.401057        7.191928       10.016127
 H        11.305097        8.443598       10.023917
 H        15.162955        8.490326       12.322714
 H        13.834245        8.483463       13.108534
 H        14.291140        7.187586       16.807457
 H        15.202435        8.436457       16.818796
 H        15.177357       12.395729       16.805811
 H        14.295169       13.668334       16.820560
 H         9.605437        8.769658       15.986053
 H         9.178674       10.027477       16.777351
 H         1.753072        8.793208       11.508729
 H         1.304730       10.050500       12.285130
 H         5.183077       10.852704        9.998372
 H         5.645199       12.113843        9.237985
 H         6.054509       12.379099       11.472319
 H         7.385208       12.375504       12.266818
 H         5.591441       12.207453       13.742565
 H         4.253611       12.221272       14.523619
 H         2.582690        7.192037       14.526181
 H         2.125162        8.453543       13.759494
 H         2.513213       13.686801       14.541941
 H         2.099685       12.424176       13.755932
 H         5.655657        8.761458       10.773829
 H         5.653135        8.747655        9.227296
 H         4.266519        8.827419       14.493684
 H         5.116820       10.121183       14.489944
 H         1.323537       10.805953       16.779591
 H         1.748577       12.077070       16.004055
 H         1.731083       12.160837       11.503048
 H         0.383391       12.161169       12.262000
 H         3.501427       12.399743       10.026872
 H         2.165164       12.401312        9.252150
 H         2.580664        7.230919       10.020678
 H         3.497295        8.473445       10.028905
 H         6.015596        8.597930       13.054084
 H         6.555473        7.322345       12.403151
 H         7.362854        8.669068       16.826927
 H         6.031512        8.729424       16.049332
 H         6.498782       13.674883       16.791052
 H         6.032658       12.424590       16.016344
 H         1.798272        8.707541       16.034609
 H         1.820992        8.728052       17.585663
