383
 generated by VMD
 O         9.127230        1.753865       12.310561
 O        12.985069        4.488101       10.094129
 O        14.302398        5.416699       12.305228
 O        12.993042        4.544129       14.550517
 O        10.410152        0.827644       14.538307
 O        10.395560        5.398950       14.558472
 O        12.970885        1.760040       10.074446
 O        12.967914        1.801205       14.541769
 O         9.077365        4.465346       16.773602
 O         9.087189        4.487005       12.330862
 O        10.393080        5.386966       10.086859
 O        10.393095        0.850485       10.067371
 O        14.266547        0.876151       12.312448
 O        14.296285        0.872925       16.741774
 O        14.282811        5.421907       16.793940
 O         9.116045        1.733600       16.776230
 O         9.139599        9.009479        3.349398
 O        13.004684       11.813041        1.088841
 O        14.227427       12.712728        3.358308
 O        12.980490       11.812360        5.622139
 O        10.416656        8.151567        5.612081
 O        10.377033       12.733404        5.626321
 O        12.960920        9.072260        1.085388
 O        12.989764        9.080338        5.570352
 O         9.104570       11.818963        7.875314
 O         9.130563       11.713542        3.353932
 O        10.409196       12.701165        1.085342
 O        10.386452        8.138495        1.066648
 O        14.237881        8.147863        3.319322
 O        14.252343        8.118930        7.793268
 O        14.107746       12.754312        7.888569
 O         9.118227        9.077715        7.853246
 O         1.304002        9.021408        3.290817
 O         5.124647       11.743030        0.909887
 O         6.527380       12.832685        2.932692
 O         5.323892       11.705300        5.670835
 O         2.633911        8.155832        5.530461
 O         2.757424       12.943909        5.324028
 O         5.197004        9.006862        1.013749
 O         5.226182        9.012190        5.596731
 O         0.782131       11.549439        8.589831
 O         1.286965       11.774801        3.246942
 O         2.550013       12.714176        1.037961
 O         2.596146        8.112982        1.035387
 O         6.512691        8.180336        3.298041
 O         6.528324        8.148071        7.855332
 O         6.529823       12.756822        7.910764
 O         1.343031        8.933544        7.838265
 O         1.305848        1.787068        3.323744
 O         5.195944        4.529377        1.058965
 O         6.491377        5.447593        3.298700
 O         5.200450        4.611014        5.557777
 O         2.610659        0.969226        5.566705
 O         2.580867        5.415213        5.545885
 O         5.191103        1.798886        1.055752
 O         5.231075        1.878135        5.608985
 O         1.315128        4.504731        7.820219
 O         1.283190        4.502565        3.319268
 O         2.606292        5.385951        1.092009
 O         2.605158        0.859948        1.079575
 O         6.537190        1.006208        3.321249
 O         6.477880        0.891656        7.840984
 O         6.499550        5.419608        7.814946
 O         1.326509        1.777949        7.820991
 O         9.141427        1.821826        3.310541
 O        12.980075        4.510362        1.073506
 O        14.232385        5.418099        3.321425
 O        12.963286        4.526554        5.571143
 O        10.393195        0.875498        5.577691
 O        10.372617        5.419051        5.608986
 O        13.019063        1.773353        1.051647
 O        12.978872        1.784461        5.561134
 O         9.081928        4.491498        7.861587
 O         9.094011        4.552276        3.337889
 O        10.382118        5.394515        1.065850
 O        10.435781        0.859881        1.071760
 O        14.261032        0.865226        3.327344
 O        14.258748        0.911866        7.831048
 O        14.258745        5.381688        7.830663
 O         9.088285        1.742669        7.836366
 O         1.333218        1.756752       12.342964
 O         5.230828        4.533095       10.062920
 O         6.512184        5.423789       12.295735
 O         5.194434        4.486069       14.495127
 O         2.646137        0.823284       14.566691
 O         2.615448        5.427068       14.552292
 O         5.223324        1.801569       10.106977
 O         5.231370        1.751207       14.545136
 O         1.321062        4.505529       16.795778
 O         1.352581        4.490474       12.304166
 O         2.641782        5.412135       10.061052
 O         2.636195        0.899136       10.073013
 O         6.540360        0.845823       12.320617
 O         6.514055        0.851474       16.787348
 O         6.495044        5.357892       16.741673
 O         1.342680        1.764957       16.779007
 O         9.081606        9.043845       12.307858
 O        12.896429       11.810805       10.116282
 O        14.251581       12.734887       12.310882
 O        12.996551       11.809211       14.554133
 O        10.389214        8.132270       14.531269
 O        10.412341       12.688312       14.563400
 O        12.989231        9.058938       10.048032
 O        12.962830        9.069619       14.555447
 O         9.094607       11.777270       16.788630
 O         9.089220       11.775610       12.355430
 O        10.351376       12.718969       10.131795
 O        10.408764        8.135198       10.090314
 O        14.251314        8.154076       12.310929
 O        14.247224        8.157892       16.798700
 O        14.277111       12.732203       16.779978
 O         9.073296        9.024288       16.768606
 O         1.300038        9.083126       12.297771
 O         5.236921       11.798470       10.118128
 O         6.522590       12.707690       12.343028
 O         5.172360       11.769282       14.519555
 O         2.582307        8.165126       14.522520
 O         2.605651       12.698674       14.560948
 O         5.198608        9.071099       10.070503
 O         5.174492        9.029538       14.502409
 O         1.289180       11.783053       16.764103
 O         1.295726       11.812638       12.354656
 O         2.666918       12.750823       10.221935
 O         2.627025        8.142456       10.081146
 O         6.498305        8.153845       12.282588
 O         6.493124        8.088926       16.725273
 O         6.506312       12.707272       16.708776
 O         1.292758        9.051247       16.768990
 H         9.576483        1.465787       11.507983
 H         9.121066        2.717057       12.299609
 H        12.952877        3.524691       10.088871
 H        12.071332        4.792578       10.088202
 H        13.856854        5.080091       11.519930
 H        15.205374        5.082825       12.279961
 H        13.472660        4.858714       13.776786
 H        13.463592        4.870019       15.325726
 H         9.971855        1.156896       13.745794
 H        11.306075        1.181474       14.523629
 H        11.315289        5.111910       14.550961
 H        10.411575        6.362517       14.552932
 H        13.410666        1.451807        9.272832
 H        12.070446        1.418612       10.047490
 H        12.985599        2.763521       14.570385
 H        13.441604        1.491186       15.321848
 H         9.107236        3.502236       16.751926
 H         9.551085        4.775752       15.994430
 H         8.185523        4.825599       12.346386
 H         9.526895        4.817347       13.121839
 H         9.921750        5.062059       10.860909
 H         9.914975        5.062625        9.315468
 H        10.368614       14.488804       10.070974
 H         9.929759        1.137457        9.272628
 H        13.803387        1.201111       11.532407
 H        13.792228        1.215319       13.078798
 H        15.215443        1.162793       16.753139
 H        14.309863       14.511838       16.757170
 H        13.840460        5.087984       17.582277
 H        15.186736        5.087935       16.819057
 H         9.583985        1.396729       16.004368
 H         9.592071        1.413922       17.550518
 H         9.597675        8.678630        2.568637
 H         9.610966        8.681133        4.123508
 H        13.420086       12.136735        1.896954
 H        12.099649       12.140741        1.097172
 H        13.793416       12.420522        4.167700
 H        14.233300       13.674803        3.377737
 H        13.401827       12.150368        6.424076
 H        12.073380       12.130061        5.641510
 H        11.319243        8.490821        5.624454
 H         9.978292        8.498720        6.396324
 H         9.941159       12.415266        4.832749
 H        10.372044       13.695945        5.581410
 H        12.043233        8.779458        1.074746
 H        12.951220       10.035887        1.085669
 H        13.447227        8.761983        6.356765
 H        13.009314       10.043706        5.608269
 H         9.535607       12.155368        7.082170
 H         8.204827       12.162824        7.866828
 H         8.219716       11.971828        3.312550
 H         9.140051       10.746609        3.355227
 H         9.937254       12.365328        0.315325
 H         9.960791       12.349513        1.858203
 H         9.912414        8.437856        0.283075
 H        10.380957        7.175553        1.038061
 H        13.764861        8.484997        2.550856
 H        13.789248        8.496182        4.098097
 H        13.818088        8.437537        8.591435
 H        14.227881        7.157176        7.828299
 H        14.209751       13.708803        7.863670
 H        14.982350       12.369492        8.066886
 H         9.578339        8.772714        8.642207
 H         9.125552       10.040734        7.879043
 H         1.732600        8.694297        2.493936
 H         0.398052        8.695544        3.278478
 H         5.585773       12.039618        0.116572
 H         5.159066       10.779578        0.917934
 H         6.001462       12.442079        2.213774
 H         5.875258       11.945512        4.943748
 H         5.275470       10.738156        5.657088
 H         3.574581       12.473014        5.452599
 H         2.171830        8.463067        4.743114
 H         2.597988        7.193929        5.509789
 H         2.266476       12.492117        4.638913
 H         5.669168        8.658492        0.249197
 H         5.677310        8.718673        1.796262
 H         5.649526        8.675152        6.393472
 H         4.314280        8.696111        5.596202
 H         1.080198       10.708238        8.251101
 H         1.506772       11.955183        9.061368
 H         1.263034       10.813864        3.275779
 H         0.376453       12.079429        3.303032
 H         3.441549       12.355942        1.026979
 H         2.117200       12.373039        1.831593
 H         3.511930        8.409599        1.035151
 H         2.620699        7.149709        1.054577
 H         6.080512        8.478752        4.104743
 H         7.426825        8.478980        3.342156
 H         6.084795        8.486632        8.640741
 H         7.429585        8.487350        7.873076
 H         6.484476       13.718164        7.858877
 H         6.068727       12.413011        7.141273
 H         1.775643        8.694946        7.014089
 H         0.435453        8.621083        7.783639
 H         1.781973        1.447568        2.559564
 H         1.785205        1.489684        4.107920
 H         5.649585        4.818343        0.259463
 H         5.201605        3.565990        1.037432
 H         6.486856        6.410397        3.266805
 H         6.041994        5.140275        2.504199
 H         5.628618        4.924489        4.753467
 H         4.284548        4.908075        5.525650
 H         3.516584        1.288214        5.576406
 H         2.668352       14.604309        5.497676
 H         2.124123        5.087710        6.327472
 H         2.104579        5.075154        4.780398
 H         5.672211        1.457599        0.293671
 H         5.682950        1.529590        1.837054
 H         5.685938        1.585276        4.815875
 H         5.234856        2.841344        5.583909
 H         1.785380        4.809878        8.602514
 H         1.339939        3.540610        7.839668
 H         0.369260        4.806039        3.313157
 H         1.259721        3.538254        3.313601
 H         3.516161        5.068608        1.111902
 H         2.171654        5.065399        1.890033
 H         2.617453       14.498929        1.076256
 H         3.521818        1.153634        1.081995
 H         7.462269        1.281710        3.320304
 H         6.537444       14.660545        3.254610
 H         6.017344        1.248240        7.073371
 H         6.018518        1.220884        8.620908
 H         6.512627        6.383135        7.819020
 H         6.041023        5.155653        7.009238
 H         1.792330        1.451041        7.041016
 H         1.797767        1.440271        8.589296
 H         9.599490        1.520271        2.519193
 H         9.149387        2.785601        3.294915
 H        13.399513        4.840477        1.876307
 H        12.070082        4.825695        1.085788
 H        14.225710        6.381870        3.339298
 H        13.781396        5.125298        4.121002
 H        12.055592        4.846896        5.606686
 H        13.400603        4.834927        6.372178
 H        11.301421        1.198211        5.564352
 H         9.972648        1.217903        4.782365
 H        10.376919        6.382200        5.641934
 H         9.918834        5.113465        6.401058
 H        13.472427        1.483377        0.253165
 H        13.013070        2.736475        1.037403
 H        13.433014        1.483083        4.766426
 H        12.984214        2.746931        5.537525
 H         8.165689        4.788293        7.841273
 H         9.063058        3.528655        7.847070
 H         9.519239        4.873847        4.140202
 H         8.186678        4.874571        3.351776
 H         9.910650        5.092494        1.849447
 H         9.906572        5.051543        0.301829
 H        11.354121        1.151642        1.064865
 H        10.448042       14.500174        1.092731
 H        15.170070        1.183734        3.313014
 H        13.843423        1.187604        2.522043
 H        15.171577        1.218550        7.805345
 H        13.835458        1.228877        7.026924
 H        13.833188        5.048326        8.627128
 H        15.168796        5.064480        7.847286
 H         8.179732        1.423298        7.812368
 H         9.519655        1.427779        7.034855
 H         0.426336        1.432929       12.354363
 H         1.768370        1.406755       13.127308
 H         4.321700        4.852857       10.042812
 H         5.655365        4.846997        9.256415
 H         6.063612        5.128944       11.494800
 H         6.503633        6.387451       12.274044
 H         5.628654        4.833565       13.708065
 H         4.294932        4.830049       14.495835
 H         3.562386        1.118767       14.552742
 H         2.659921       14.461377       14.566775
 H         2.589475        6.390263       14.560676
 H         2.162003        5.129184       15.347963
 H         5.692333        1.488448       10.887143
 H         5.247383        2.764230       10.126059
 H         5.695897        1.450553       13.756366
 H         5.218225        2.713691       14.507613
 H         1.340125        3.542273       16.799717
 H         1.782747        4.792468       17.591948
 H         1.359848        3.527486       12.338385
 H         1.796200        4.798663       13.101374
 H         2.621458        6.375682       10.092461
 H         2.189229        5.101210       10.851851
 H         2.196719        1.211519       10.869543
 H         3.537183        1.236427       10.103607
 H         7.459213        1.134270       12.320267
 H         6.551196       14.484478       12.329309
 H         7.420679        1.176445       16.770048
 H         6.083487        1.188717       15.993655
 H         6.062338        5.024679       15.948324
 H         7.399620        5.025202       16.731363
 H         1.824482        1.427666       16.015778
 H         1.799885        1.436027       17.561411
 H         9.064486       10.007298       12.319431
 H         8.163581        8.750947       12.301377
 H        13.319866       12.149563        9.316575
 H        12.955418       10.851151       10.072976
 H        14.236730       13.697211       12.286942
 H        13.781505       12.426731       11.527681
 H        13.462746       12.145850       15.327687
 H        13.458040       12.146552       13.778063
 H         9.951193        8.460501       13.738356
 H        11.287551        8.480251       14.521025
 H        10.430709       13.651448       14.557477
 H        11.330737       12.395591       14.560458
 H        12.086715        8.725334       10.079132
 H        13.425098        8.737519       10.843773
 H        13.414108        8.767641       15.351137
 H        12.989632       10.032531       14.571247
 H         9.093797       10.814466       16.763784
 H         9.565985       12.074191       16.002489
 H         9.570565       12.103477       13.123145
 H         9.543384       12.118833       11.576882
 H         9.924912       12.390954        9.332380
 H        11.254456       12.376743       10.118098
 H        10.391463        7.172700       10.103662
 H         9.938058        8.432632       10.876267
 H        13.796051        8.446682       13.107086
 H        14.259648        7.191361       12.328102
 H        13.789793        8.456577       17.592714
 H        14.245734        7.194771       16.819330
 H        13.846380       12.408346       17.578476
 H        15.175602       12.381678       16.791925
 H         9.517769        8.698789       15.978503
 H         8.170854        8.689522       16.735205
 H         0.385529        8.782494       12.291356
 H         1.275204       10.047105       12.298399
 H         5.710526       12.117774       10.893948
 H         5.699860       12.149205        9.350191
 H         7.421457       12.362710       12.379877
 H         6.058802       12.368904       13.116870
 H         5.620965       12.113379       15.299080
 H         4.268137       12.103023       14.546506
 H         2.111671        8.498812       13.749799
 H         2.113762        8.494355       15.297352
 H         2.134903       12.365532       15.333149
 H         2.122282       12.382264       13.787686
 H         4.282121        8.772235       10.064849
 H         5.180440       10.034938       10.079661
 H         4.254856        8.741189       14.511044
 H         5.158621        9.992686       14.515699
 H         1.736264       12.093336       17.560625
 H         1.304724       10.819898       16.791868
 H         1.766339       12.158136       11.585718
 H         0.394609       12.147838       12.302138
 H         2.686572       13.708195       10.140584
 H         3.575484       12.441887       10.165579
 H         2.154183        8.430451        9.289495
 H         2.144596        8.492515       10.836985
 H         6.027894        8.485478       11.508710
 H         6.014527        8.471125       13.053491
 H         6.026065        8.394437       15.940490
 H         6.484811        7.125489       16.700514
 H         6.533719       13.670235       16.736605
 H         7.419923       12.401519       16.728334
 H         1.737924        8.705758       17.550955
 H         0.385038        8.729452       16.802240
