383
 generated by VMD
 O         9.111407        1.772985       12.293398
 O        12.979891        4.543945       10.063583
 O        14.240622        5.405762       12.343283
 O        12.962488        4.466662       14.601569
 O        10.360198        0.860475       14.566657
 O        10.368441        5.382447       14.548257
 O        12.953696        1.808176       10.008332
 O        12.961503        1.732946       14.571912
 O         9.080348        4.511694       16.784060
 O         9.103242        4.500871       12.290687
 O        10.380632        5.423062       10.055098
 O        10.383123        0.855073       10.045945
 O        14.237393        0.978666       12.300718
 O        14.266407        0.823891       16.791832
 O        14.289962        5.353076       16.817549
 O         9.041030        1.776099       16.799206
 O         9.078925        9.073063        3.321836
 O        12.962943       11.783305        1.154152
 O        14.281979       12.735448        3.345500
 O        12.909760       11.789632        5.490952
 O        10.345395        8.149836        5.564340
 O        10.360918       12.745543        5.520746
 O        12.963048        9.036403        1.112355
 O        12.931442        9.051227        5.541459
 O         9.101044       11.821651        7.771984
 O         9.081355       11.811925        3.306572
 O        10.401880       12.694379        1.091695
 O        10.378184        8.126678        1.104275
 O        14.259229        8.112514        3.334437
 O        14.252947        8.157454        7.783061
 O        14.132894       12.725787        7.696800
 O         9.081390        9.083377        7.801576
 O         1.301012        9.040628        3.360005
 O         5.208767       11.801514        1.109795
 O         6.516724       12.726011        3.319661
 O         5.207886       11.798213        5.531112
 O         2.606671        8.149547        5.597188
 O         2.617775       12.685850        5.521198
 O         5.161652        9.059010        1.133774
 O         5.183578        9.064283        5.569492
 O         1.256532       11.885604        7.695509
 O         1.308122       11.776505        3.311760
 O         2.637124       12.739715        1.135319
 O         2.586514        8.125050        1.121779
 O         6.500280        8.137086        3.339589
 O         6.495457        8.191485        7.819932
 O         6.520577       12.698261        7.774507
 O         1.290844        9.083097        7.833076
 O         1.283824        1.757073        3.303083
 O         5.231034        4.491828        1.111265
 O         6.552069        5.400090        3.335288
 O         5.230282        4.538342        5.585438
 O         2.618366        0.845391        5.521269
 O         2.630391        5.404513        5.564898
 O         5.194039        1.757048        1.072528
 O         5.204056        1.792773        5.528666
 O         1.309002        4.475598        7.798514
 O         1.346416        4.486998        3.334528
 O         2.647225        5.393480        1.101997
 O         2.606596        0.865470        1.087467
 O         6.502244        0.862484        3.308719
 O         6.506773        0.856564        7.770975
 O         6.529194        5.456735        7.825200
 O         1.308580        1.734088        7.765664
 O         9.096119        1.728879        3.290750
 O        12.984048        4.454306        1.104350
 O        14.294930        5.381422        3.322905
 O        12.960684        4.562002        5.568894
 O        10.369006        0.879582        5.552866
 O        10.360289        5.414953        5.544879
 O        12.953456        1.727259        1.054232
 O        12.926474        1.826883        5.540287
 O         9.098843        4.522647        7.811366
 O         9.124130        4.460549        3.294321
 O        10.404851        5.386373        1.061200
 O        10.371219        0.827824        1.040056
 O        14.225659        0.879508        3.321090
 O        14.224922        0.881466        7.746350
 O        14.271852        5.422385        7.811728
 O         9.096695        1.779824        7.806711
 O         1.329738        1.862074       12.316233
 O         5.231868        4.561765       10.075211
 O         6.525746        5.416974       12.337512
 O         5.227544        4.508890       14.574127
 O         2.599202        0.858493       14.564189
 O         2.635476        5.420433       14.598776
 O         5.254988        1.819363       10.028751
 O         5.202340        1.761851       14.529218
 O         1.340889        4.476693       16.825233
 O         1.318700        4.590631       12.329867
 O         2.613219        5.401474       10.045768
 O         2.619417        0.986545       10.080515
 O         6.525959        0.877949       12.286280
 O         6.462757        0.845075       16.777828
 O         6.509504        5.439344       16.818462
 O         1.294604        1.749614       16.801514
 O         9.097053        9.045340       12.316749
 O        12.890018       11.760873        9.886992
 O        14.527002       12.883245       11.588673
 O        12.972801       11.733232       14.861050
 O        10.344151        8.110670       14.568938
 O        10.360201       12.707114       14.580456
 O        12.941265        9.008711       10.049401
 O        12.966985        8.941037       14.579618
 O         9.064277       11.777798       16.835533
 O         9.171683       11.795429       12.320166
 O        10.371378       12.720082       10.021133
 O        10.353370        8.153543       10.048491
 O        14.221365        8.123606       12.314320
 O        14.278637        8.088068       16.853642
 O        14.309334       12.717749       16.888935
 O         9.060086        9.029382       16.812990
 O         1.290101        8.980560       12.342786
 O         5.382362       11.763815       10.077275
 O         6.612585       12.724886       12.345132
 O         5.246907       11.817283       14.584232
 O         2.605079        8.153800       14.584226
 O         2.630598       12.708379       14.701689
 O         5.222279        9.042468       10.091092
 O         5.187476        9.075756       14.592673
 O         1.317420       11.775646       16.893137
 O         1.373673       11.687434       12.501502
 O         3.019088       12.880291       10.593401
 O         2.621491        8.148526       10.066226
 O         6.494733        8.148552       12.349410
 O         6.458958        8.170178       16.834137
 O         6.513585       12.717699       16.828369
 O         1.318912        9.050698       16.831575
 H         9.548891        1.431133       11.505582
 H         8.203463        1.452945       12.265606
 H        12.074319        4.871550       10.079815
 H        13.401953        4.849343       10.873928
 H        13.791184        5.095785       13.135942
 H        14.215193        6.370330       12.363125
 H        12.940624        3.502517       14.588399
 H        12.047598        4.765318       14.584157
 H         9.905445        1.187702       13.783960
 H         9.883443        1.201019       15.329681
 H         9.926209        5.088614       13.744115
 H        10.352845        6.346222       14.535463
 H        12.965830        2.770743        9.990956
 H        13.410145        1.506099        9.217074
 H        12.058827        1.399631       14.549877
 H        13.390886        1.436052       13.759690
 H         8.182832        4.861751       16.774590
 H         9.510891        4.822016       15.978841
 H         9.556224        4.805075       11.496437
 H         9.122587        3.537227       12.270771
 H         9.933487        5.122312        9.256502
 H        10.355936        6.386508       10.034964
 H        10.408958       14.493381       10.040668
 H        11.296882        1.160052       10.039160
 H        15.139640        1.307657       12.283152
 H        13.813296        1.288173       11.495028
 H        14.267023       14.459534       16.792862
 H        13.804912        1.105256       15.993558
 H        13.818176        5.026041       17.591011
 H        13.808334        5.034465       16.045483
 H         8.125990        1.475855       16.788626
 H         9.023042        2.739243       16.797705
 H         9.088962       10.036533        3.336824
 H         9.525517        8.776996        4.122688
 H        13.430840       12.083488        1.940395
 H        12.983322       10.820963        1.158200
 H        13.801078       12.424257        4.121450
 H        14.248544       13.697649        3.361593
 H        13.349678       12.094041        6.294734
 H        12.920736       10.826589        5.515885
 H         9.897615        8.451124        6.362811
 H        10.330428        7.186765        5.579179
 H        10.394784       13.708266        5.531402
 H        11.271988       12.430361        5.506736
 H        13.433303        8.704165        0.339411
 H        13.432837        8.696136        1.881433
 H        12.027497        8.718796        5.528199
 H        13.371663        8.705649        4.757721
 H         9.570640       12.158978        7.001706
 H         9.560599       12.150956        8.553391
 H         9.562098       12.132603        2.534810
 H         9.543336       12.156107        4.079850
 H        10.417340       13.656684        1.061340
 H        11.319071       12.396832        1.106353
 H        11.281722        8.461493        1.119209
 H         9.942584        8.469266        1.892287
 H        15.170658        8.424338        3.351397
 H        14.296287        7.149858        3.327781
 H        14.255148        7.194270        7.764330
 H        13.782181        8.450481        6.995826
 H        15.036713       12.407201        7.705679
 H        13.699778       12.359513        8.481200
 H         8.161415        8.797644        7.807602
 H         9.071558       10.046758        7.787614
 H         1.312280       10.003891        3.362503
 H         1.763742        8.753803        4.154997
 H         5.672078       12.101979        1.899801
 H         5.195830       10.839038        1.142072
 H         6.530819       13.689248        3.315839
 H         7.434853       12.431280        3.311020
 H         5.684796       12.139610        4.766088
 H         5.673993       12.121634        6.309643
 H         3.509968        8.485584        5.611699
 H         2.173095        8.479520        6.390409
 H         2.178737       12.348868        4.730770
 H         3.523781       12.355853        5.504986
 H         5.610230        8.715637        1.914113
 H         4.258261        8.725297        1.158504
 H         5.650068        8.746107        4.789288
 H         5.203960       10.026921        5.529440
 H         1.633073       12.341311        8.431460
 H         1.756977       12.175753        6.916183
 H         1.752099       12.124118        2.530180
 H         0.411141       12.129005        3.307274
 H         3.551185       12.436038        1.128465
 H         2.657156       13.702915        1.117746
 H         2.126332        8.463171        0.344960
 H         2.110249        8.449994        1.893590
 H         6.544805        7.174703        3.337306
 H         7.409682        8.454803        3.330624
 H         6.025356        8.500433        8.601532
 H         6.011585        8.512271        7.051351
 H         6.530556       13.661312        7.774981
 H         7.442373       12.414104        7.760650
 H         0.374859        8.781039        7.814999
 H         1.263707       10.040801        7.811563
 H         1.280985        2.720412        3.321510
 H         0.362991        1.473597        3.312413
 H         4.316626        4.795513        1.108780
 H         5.200706        3.528868        1.098082
 H         7.451821        5.057495        3.302718
 H         6.101517        5.066640        2.551833
 H         5.696974        4.865894        6.361763
 H         5.714090        4.852072        4.814307
 H         2.143793        1.142824        4.737201
 H         2.619407       14.485773        5.492676
 H         2.637428        6.367651        5.583022
 H         3.551953        5.123685        5.578193
 H         5.618670        1.423772        0.274109
 H         4.286496        1.434006        1.060610
 H         4.290754        1.488244        5.529641
 H         5.180965        2.755199        5.556203
 H         1.777308        4.784367        7.015852
 H         1.316463        3.513158        7.759795
 H         1.822280        4.814999        2.563745
 H         1.813635        4.815941        4.110843
 H         2.616650        6.356485        1.084652
 H         2.181601        5.086847        0.315887
 H         2.128353        1.179307        0.311788
 H         2.128306        1.191274        1.858238
 H         6.031690        1.204437        4.077206
 H         6.032892        1.184458        2.531678
 H         7.409511        1.192719        7.759937
 H         6.075278        1.188189        6.976939
 H         6.510303        6.419992        7.840554
 H         6.067658        5.161033        8.617301
 H         1.784972        1.443485        8.547889
 H         1.790899        1.403736        6.999823
 H         8.185706        1.414556        3.317309
 H         9.524480        1.413130        4.094479
 H        12.947867        3.491164        1.089123
 H        12.073206        4.766946        1.090154
 H        15.200157        5.052317        3.305213
 H        13.854097        5.037859        2.538300
 H        13.431199        4.879562        6.347405
 H        13.450821        4.869013        4.798719
 H         9.937376        1.202978        6.351434
 H        11.267065        1.229912        5.566372
 H        11.273889        5.109309        5.537495
 H         9.944303        5.064716        4.749943
 H        13.402850        1.398765        0.265920
 H        12.049953        1.395357        1.019600
 H        13.396421        1.513781        6.321813
 H        12.948454        2.789506        5.571865
 H         8.196294        4.860389        7.801649
 H         9.523136        4.838569        7.006771
 H         9.127632        3.497047        3.275842
 H         9.579433        4.759483        2.499797
 H         9.940287        5.104087        0.265389
 H        10.388053        6.349547        1.065381
 H         9.911934        1.145974        1.824673
 H         9.887693        1.168632        0.279244
 H        13.754392        1.232010        4.083745
 H        13.757078        1.183138        2.535940
 H        14.206033       14.521142        7.745763
 H        15.151692        1.141343        7.756363
 H        15.170901        5.076537        7.826830
 H        13.837849        5.111595        8.613816
 H         9.549137        1.471470        8.599735
 H         9.106286        2.742368        7.835303
 H         1.767670        1.529575       13.105598
 H         1.344994        2.823979       12.366902
 H         5.230133        3.598924       10.053872
 H         4.308932        4.836883       10.064370
 H         7.429582        5.084555       12.298615
 H         6.082249        5.108564       11.539729
 H         5.696676        4.837327       13.799366
 H         5.695032        4.844485       15.346113
 H         2.619817       14.498734       14.602217
 H         3.515534        1.152883       14.554542
 H         2.202856        5.070868       15.385117
 H         3.539902        5.090011       14.604973
 H         4.336226        1.537555       10.014609
 H         5.664058        1.482363        9.224054
 H         5.223206        2.724740       14.530927
 H         5.664032        1.476408       13.733890
 H         1.310769        3.513118       16.817989
 H         0.424147        4.774162       16.816004
 H         1.756298        4.912388       13.124438
 H         0.405490        4.896996       12.363814
 H         2.135889        5.104122       10.827349
 H         2.144000        5.056821        9.279122
 H         2.691960       14.649269       10.204526
 H         2.157163        1.318563       10.861277
 H         6.539222       14.517188       12.274563
 H         6.077274        1.166682       11.485028
 H         6.472499       14.483418       16.771580
 H         6.014692        1.130234       15.974065
 H         6.475635        6.401985       16.846949
 H         6.056345        5.122081       17.607054
 H         1.736541        1.429246       16.007769
 H         0.391108        1.412302       16.772886
 H         9.520456        8.722044       11.514071
 H         8.188297        8.728987       12.301495
 H        13.459824       12.127058       10.583467
 H        12.916821       10.804101        9.974058
 H        14.410162       13.760283       11.948393
 H        12.085939       12.058435       14.714929
 H        12.956417       10.789306       14.713410
 H         9.899901        8.457463       13.787781
 H         9.871563        8.449867       15.335944
 H        10.357482       13.668524       14.592651
 H         9.897538       12.415484       15.370494
 H        13.423836        8.686261        9.282193
 H        13.409187        8.698370       10.832038
 H        13.396664        8.622817       15.378247
 H        12.055541        8.637116       14.607174
 H         9.549191       12.068138       17.615650
 H         9.079023       10.815368       16.840384
 H         9.623514       12.091276       13.120091
 H         9.165758       10.833639       12.339273
 H         9.964215       12.390759       10.828866
 H        11.271419       12.368268       10.008410
 H         9.924881        8.499337        9.258418
 H        11.265624        8.465701       10.030029
 H        15.128020        8.446665       12.337160
 H        13.790964        8.447474       13.115139
 H        15.185985        8.409072       16.835318
 H        14.319342        7.126198       16.847927
 H        13.824854       12.348988       16.128241
 H        13.841578       12.399228       17.665821
 H         8.150870        8.714150       16.848042
 H         9.504458        8.695099       17.598911
 H         1.320268        9.943650       12.374547
 H         1.753397        8.710595       11.543979
 H         5.785687       12.065847        9.255085
 H         5.337821       10.801073       10.047361
 H         6.220176       12.365455       11.545181
 H         7.523625       12.406234       12.352380
 H         5.723676       12.144285       13.815212
 H         5.719265       12.138740       15.360335
 H         2.615386        7.190609       14.590818
 H         2.136676        8.415289       13.783254
 H         3.534964       12.381696       14.698063
 H         2.202723       12.379506       15.500957
 H         5.648228        8.709790       10.889120
 H         4.313133        8.724218       10.104312
 H         4.268293        8.787382       14.579438
 H         5.182652       10.038840       14.581109
 H         1.752293       12.119566       17.680122
 H         0.412927       12.116855       16.898794
 H        -0.289168       12.466166       12.055986
 H         1.763694       12.018225       13.317491
 H         3.885580       12.478955       10.409769
 H         1.910607       12.055952       11.809948
 H         2.607858        7.186062       10.029204
 H         2.154499        8.458932        9.284333
 H         6.037750        8.450743       13.140868
 H         6.496812        7.185357       12.376362
 H         5.994788        8.502031       16.057262
 H         5.985283        8.501261       17.604681
 H         7.416267       12.378920       16.857914
 H         6.067987       12.383541       17.614408
 H         1.774138        8.768103       16.031260
 H         1.320430       10.014890       16.831635
