383
 generated by VMD
 O         9.109372        1.778530       12.281719
 O        12.974975        4.543957       10.081275
 O        14.268085        5.420288       12.338179
 O        12.959450        4.479541       14.546282
 O        10.388332        0.852127       14.520243
 O        10.390972        5.397238       14.564338
 O        12.952115        1.809730        9.992188
 O        12.933390        1.772869       14.404276
 O         9.075919        4.488476       16.792896
 O         9.092737        4.518538       12.303820
 O        10.380051        5.434665       10.066130
 O        10.370200        0.871776       10.027583
 O        14.283884        0.844916       12.181511
 O        14.362538        0.728995       16.322233
 O        14.242743        5.382591       16.800663
 O         9.088155        1.749893       16.755762
 O         9.070575        9.067620        3.347600
 O        12.948092       11.779333        1.078908
 O        14.305086       12.630394        3.309079
 O        12.975705       11.796489        5.560609
 O        10.405986        8.215709        5.581979
 O        10.367451       12.695436        5.543453
 O        12.948377        9.059530        1.070897
 O        13.027809        9.060654        5.571931
 O         9.068962       11.854536        7.824574
 O         9.032967       11.800422        3.338333
 O        10.375602       12.714004        1.105551
 O        10.346087        8.183073        1.093450
 O        14.304854        8.192177        3.297746
 O        14.294201        8.189707        7.831406
 O        14.258293       12.649561        7.835096
 O         9.080406        9.121116        7.812688
 O         1.368718        9.030506        3.341298
 O         5.214044       11.771516        1.088380
 O         6.446136       12.706276        3.355575
 O         5.173714       11.797374        5.604296
 O         2.612373        8.120163        5.597170
 O         2.595870       12.701509        5.585753
 O         5.219449        9.035233        1.092111
 O         5.187568        9.058481        5.576416
 O         1.331132       11.787542        7.842848
 O         1.359011       11.751286        3.324420
 O         2.634029       12.674943        1.078781
 O         2.635787        8.130654        1.096784
 O         6.494933        8.152540        3.337701
 O         6.507142        8.184581        7.827378
 O         6.455687       12.708667        7.849009
 O         1.357394        9.056860        7.842442
 O         1.440067        1.776541        3.342444
 O         5.187497        4.503104        1.092420
 O         6.451797        5.423531        3.345089
 O         5.208715        4.488122        5.593967
 O         2.654808        0.848848        5.617098
 O         2.626179        5.388508        5.561896
 O         5.225703        1.769399        1.071768
 O         5.215368        1.755015        5.610431
 O         1.330389        4.514968        7.811257
 O         1.354269        4.511430        3.293370
 O         2.610359        5.398747        1.029333
 O         2.662003        0.811275        1.078083
 O         6.422759        0.845406        3.344266
 O         6.437996        0.836261        7.865706
 O         6.470065        5.438406        7.846921
 O         1.393433        1.752764        7.872720
 O         8.963523        1.802177        3.298245
 O        12.947452        4.643865        1.128615
 O        14.298809        5.470539        3.319499
 O        12.915861        4.668485        5.607693
 O        10.235303        0.813906        5.529567
 O        10.303770        5.490213        5.595738
 O        12.786231        2.046489        1.520131
 O        12.749427        2.002290        5.764960
 O         9.049135        4.507156        7.844635
 O         9.040627        4.543808        3.345380
 O        10.312309        5.469394        1.099359
 O        10.304617        0.821094        1.104089
 O        14.474854        0.761872        3.448153
 O        14.317244        0.826053        7.869195
 O        14.275318        5.468204        7.852057
 O         9.003892        1.753607        7.817235
 O         1.340407        1.774216       12.324339
 O         5.171417        4.516569       10.086495
 O         6.485842        5.386076       12.329036
 O         5.192286        4.496397       14.575800
 O         2.658800        0.832134       14.539004
 O         2.612239        5.408196       14.571756
 O         5.209363        1.780667       10.120008
 O         5.232562        1.759167       14.542141
 O         1.290079        4.485990       16.763805
 O         1.324000        4.514812       12.321675
 O         2.590846        5.439178       10.068079
 O         2.648826        0.848848       10.118096
 O         6.541142        0.857300       12.319584
 O         6.493842        0.817880       16.780636
 O         6.499879        5.416421       16.808372
 O         1.387011        1.778805       16.770233
 O         9.098494        9.053524       12.333148
 O        12.946560       11.767078       10.085871
 O        14.263150       12.720079       12.292188
 O        12.963405       11.790917       14.518535
 O        10.397297        8.137227       14.568975
 O        10.398692       12.723489       14.564924
 O        12.977399        9.026587       10.081666
 O        12.970398        9.059052       14.547010
 O         9.111556       11.817706       16.790323
 O         9.092060       11.794124       12.342875
 O        10.365111       12.727938       10.091760
 O        10.363718        8.174220       10.057995
 O        14.287847        8.161938       12.324959
 O        14.257724        8.141706       16.800236
 O        14.280419       12.575204       16.743547
 O         9.073894        9.085424       16.769747
 O         1.345919        9.081447       12.335358
 O         5.191136       11.783902       10.101671
 O         6.514149       12.708572       12.321559
 O         5.213550       11.799335       14.562749
 O         2.630734        8.150599       14.575542
 O         2.624947       12.690687       14.567110
 O         5.232131        9.043037       10.098916
 O         5.211104        9.060371       14.547958
 O         1.355801       11.730687       16.790855
 O         1.305813       11.811485       12.327131
 O         2.609376       12.715695       10.082702
 O         2.627870        8.175978       10.097973
 O         6.528535        8.123050       12.338083
 O         6.516644        8.154366       16.788265
 O         6.518149       12.689083       16.800920
 O         1.323575        8.993696       16.810530
 H         9.114132        2.741765       12.269588
 H         9.558160        1.486789       11.480862
 H        13.442302        4.856123       10.864015
 H        13.454177        4.882790        9.317266
 H        14.258801        6.382582       12.364577
 H        13.807742        5.111675       13.127398
 H        13.410085        4.753846       15.351947
 H        12.971631        3.513236       14.528233
 H        11.294982        1.186167       14.485705
 H         9.951049        1.182558       13.729254
 H        11.292422        5.054113       14.545222
 H         9.956602        5.082808       13.765044
 H        12.038270        1.504628       10.007118
 H        12.931734        2.773060       10.023523
 H        13.448332        1.391930       15.138310
 H        13.378313        1.466906       13.609881
 H         9.544679        4.788820       16.006756
 H         9.092790        3.525123       16.768450
 H         9.521477        4.863340       11.513071
 H         8.182926        4.832671       12.289882
 H        10.391391        6.397900       10.055613
 H        11.299588        5.147799       10.073354
 H         9.886851        1.144876        9.240550
 H        10.366268       14.510461       10.035878
 H        15.183804        1.184410       12.205792
 H        13.862217        1.197057       11.392346
 H        15.225295        1.069628       16.549120
 H        14.352993       14.396573       16.519676
 H        13.779765        5.105375       17.601255
 H        14.240389        6.344371       16.807371
 H         9.537001        1.420792       15.968975
 H         8.189588        1.407936       16.731905
 H         9.539308        8.749393        2.568037
 H         9.565847        8.765306        4.116643
 H        13.401534       12.102435        1.863663
 H        12.053250       12.135403        1.106698
 H        14.381294       13.588153        3.323923
 H        15.210093       12.297727        3.310200
 H        12.067638       12.114431        5.523883
 H        13.418165       12.107434        4.763088
 H        11.331824        8.479707        5.578146
 H        10.387901        7.252638        5.594752
 H         9.905146       12.387055        6.329727
 H         9.881137       12.358089        4.781936
 H        12.923515       10.023839        1.075672
 H        12.032843        8.761387        1.084239
 H        13.474518        8.775145        4.767663
 H        13.015370       10.023873        5.552798
 H         9.504823       12.175834        8.620815
 H         8.160810       12.173571        7.853051
 H         9.014585       10.837263        3.333939
 H         8.117113       12.098283        3.342870
 H        10.345736       13.679279        1.122202
 H         9.901495       12.411305        1.885939
 H         9.894064        8.486243        0.299665
 H        10.317752        7.218911        1.074607
 H        14.295343        7.227918        3.285437
 H        13.828333        8.482403        2.512489
 H        13.875145        8.508201        7.023844
 H        15.200806        8.516094        7.823355
 H        14.258298       13.609498        7.825966
 H        13.805910       12.367743        7.032205
 H         9.087985       10.084662        7.800888
 H         9.555981        8.830423        7.027409
 H         0.454408        8.724858        3.340743
 H         1.777272        8.697035        4.147840
 H         5.685180       12.072474        0.303948
 H         5.227261       10.808453        1.068433
 H         5.987993       12.367136        2.579429
 H         5.977709       12.373179        4.128812
 H         5.152908       10.834278        5.595235
 H         4.256804       12.094808        5.599528
 H         2.168589        8.423524        6.396732
 H         2.601965        7.156868        5.614811
 H         2.124500       12.372707        6.358837
 H         2.136252       12.364490        4.809134
 H         5.691666        8.710650        1.867289
 H         5.690586        8.706670        0.318893
 H         5.623969        8.733632        4.781756
 H         4.288733        8.712100        5.563491
 H         0.418863       12.094368        7.866878
 H         1.763530       12.133808        8.631402
 H         1.387948       10.787967        3.309435
 H         1.813068       12.058282        2.532233
 H         3.551229       12.380832        1.079713
 H         2.653470       13.638506        1.079539
 H         3.541536        8.458710        1.108247
 H         2.211816        8.450537        1.900975
 H         7.413054        8.444793        3.351933
 H         6.507195        7.189074        3.346394
 H         6.061296        8.502925        7.035476
 H         7.407358        8.526860        7.795233
 H         5.995515       12.360310        8.619984
 H         5.990454       12.377740        7.072729
 H         1.367621       10.020629        7.856749
 H         1.805653        8.766791        8.644464
 H         1.420033        2.740346        3.342750
 H         1.889378        1.497190        4.147458
 H         5.638731        4.837750        0.309995
 H         4.278820        4.821094        1.044962
 H         5.981194        5.095010        2.571632
 H         5.996509        5.082148        4.122525
 H         5.229863        3.525210        5.629150
 H         5.653887        4.806928        6.386342
 H         2.620013       14.488085        5.616352
 H         2.203359        1.141301        6.416580
 H         3.531556        5.058899        5.552391
 H         2.203827        5.077991        4.753925
 H         5.226574        2.732459        1.095518
 H         5.655437        1.468610        1.879830
 H         5.640965        1.421611        6.408461
 H         4.308497        1.427904        5.631995
 H         1.357647        3.552994        7.823078
 H         1.787105        4.792139        7.009495
 H         0.449510        4.840597        3.284947
 H         1.774523        4.835466        2.488898
 H         2.605394        6.361841        1.022781
 H         2.137203        5.103803        0.242477
 H         3.561599        1.155382        1.083063
 H         2.240767        1.153456        1.872459
 H         5.986935        1.143303        4.150980
 H         6.417934       14.484405        3.363377
 H         5.994265        1.144601        8.663319
 H         6.424208       14.474813        7.887346
 H         7.383319        5.132068        7.850888
 H         6.503734        6.400918        7.834857
 H         0.495710        1.413714        7.901993
 H         1.833158        1.432398        8.669490
 H         9.397379        1.444888        4.077642
 H         8.061407        1.463094        3.317932
 H        12.901935        3.679886        1.236785
 H        12.035074        4.945519        1.119209
 H        13.799752        5.167750        2.548141
 H        13.812002        5.178289        4.093186
 H        12.014668        5.009457        5.629452
 H        13.368864        4.987963        6.396557
 H        11.119132        1.162097        5.551017
 H        10.309323       14.453850        5.529972
 H         9.843392        5.137087        6.364301
 H         9.851024        5.147590        4.816733
 H        11.992738        1.546312        1.338098
 H        14.150859        1.030817        4.292790
 H        12.802422        2.971205        5.684547
 H         9.046584        3.544488        7.856638
 H         9.524734        4.797792        8.630010
 H         8.124599        4.841663        3.345577
 H         9.010021        3.580754        3.332704
 H         9.871333        5.100607        0.327173
 H         9.853380        5.127881        1.873992
 H         9.893312        1.158201        0.302978
 H         9.807860        1.182454        1.843784
 H        15.369001        1.126289        3.382277
 H        13.341226        1.532481        2.096310
 H        13.828812        1.175385        8.627965
 H        13.882059        1.177266        7.103855
 H        15.182523        5.146160        7.825796
 H        14.320363        6.431584        7.855012
 H         9.402390        1.413151        7.011685
 H         8.096557        1.427658        7.830388
 H         1.784850        1.464283       13.120602
 H         1.346077        2.736602       12.353971
 H         4.266307        4.845904       10.059276
 H         5.611266        4.851882        9.297737
 H         6.003818        5.072842       11.556110
 H         6.018703        5.057019       13.104367
 H         4.285958        4.823097       14.601013
 H         5.633547        4.830206       15.364192
 H         3.576808        1.121182       14.527486
 H         2.663817       14.471732       14.551332
 H         2.124348        5.071041       15.333030
 H         2.151021        5.090477       13.788106
 H         5.688423        1.488321       10.903111
 H         5.212804        2.744054       10.125787
 H         5.706064        1.472170       13.754015
 H         5.226516        2.722139       14.533902
 H         0.367989        4.765772       16.781338
 H         1.293583        3.520306       16.773212
 H         0.416787        4.838871       12.310087
 H         1.746611        4.844627       11.521718
 H         2.586577        6.402438       10.057698
 H         2.142587        5.146243        9.267550
 H         2.206954        1.184913       10.906561
 H         3.550889        1.187502       10.142599
 H         7.458989        1.151495       12.306415
 H         6.553883       14.496486       12.319125
 H         6.040471        1.164146       17.556622
 H         6.027347        1.156956       16.009310
 H         7.411316        5.102953       16.799473
 H         6.537186        6.378822       16.802879
 H         1.827126        1.429886       17.549778
 H         1.861349        1.438593       16.005634
 H         8.196868        8.714846       12.359444
 H         9.544215        8.712049       13.115900
 H        12.962132       10.803843       10.075541
 H        13.400741       12.054464        9.287427
 H        13.799420       12.398911       11.511557
 H        14.252664       13.682724       12.242787
 H        13.432291       12.140918       13.753686
 H        13.450076       12.080778       15.300777
 H        10.420721        7.173945       14.574502
 H        11.312967        8.437959       14.558491
 H        10.419130       13.687509       14.544912
 H        11.315716       12.425776       14.550214
 H        12.069014        8.708591       10.052346
 H        13.411895        8.715215        9.280269
 H        13.439631        8.761268       13.760317
 H        12.974106       10.022842       14.517167
 H         9.587206       12.158015       16.023705
 H         9.573709       12.140497       17.572165
 H         9.554235       12.097960       13.132136
 H         9.106721       10.831175       12.362407
 H         9.934345       12.394505       10.885890
 H        11.263411       12.381042       10.101048
 H         9.904117        8.498268       10.839828
 H         9.898123        8.523626        9.291066
 H        13.851377        8.473342       11.524687
 H        15.191549        8.493134       12.302694
 H        13.800377        8.477077       16.022373
 H        13.778177        8.476848       17.566179
 H        13.834467       12.308470       17.552200
 H        15.185479       12.255439       16.797798
 H         9.102153       10.048683       16.753296
 H         9.550924        8.776278       15.991860
 H         1.344317       10.044901       12.358779
 H         1.795146        8.779685       13.131915
 H         5.215564       10.821222       10.124371
 H         5.662628       12.090177       10.883753
 H         7.416521       12.371229       12.347132
 H         6.076300       12.387256       13.116900
 H         5.648077       12.122214       15.359718
 H         4.307265       12.126019       14.583400
 H         2.617520        7.187205       14.579797
 H         2.163521        8.431011       15.370825
 H         2.158178       12.348823       15.337929
 H         2.145510       12.380683       13.791620
 H         5.707726        8.699479       10.862416
 H         5.695586        8.731221        9.314060
 H         4.295109        8.761557       14.561580
 H         5.189250       10.023509       14.548058
 H         1.805034       12.045637       17.582556
 H         1.368853       10.768588       16.822784
 H         1.744898       12.138718       11.534928
 H         0.399654       12.139514       12.296905
 H         3.519735       12.401564       10.091953
 H         2.649122       13.678441       10.092229
 H         3.539212        8.486479       10.120697
 H         2.197946        8.508331       10.893909
 H         6.054283        8.433328       13.117187
 H         6.502304        7.160334       12.360130
 H         7.416451        8.499854       16.760113
 H         6.071289        8.480636       15.999268
 H         7.438459       12.403370       16.794390
 H         6.528430       13.652763       16.799675
 H         0.411440        8.683061       16.833353
 H         1.756263        8.671137       17.608446
