383

O 9.07926023 1.73635071 12.32025681
O 12.96721580 4.51423655 10.05423531
O 14.24705491 5.39261485 12.32629559
O 12.93237206 4.47797722 14.55902966
O 10.37356989 0.83826629 14.55921078
O 10.35229387 5.39811611 14.52215409
O 12.99083504 1.77364731 10.06980162
O 12.95184619 1.73381130 14.57689047
O 9.09203945 4.50545241 16.76718800
O 9.04065379 4.46921881 12.30521283
O 10.36904240 5.36264982 10.07926938
O 10.39989360 0.84715068 10.10076274
O 14.24589245 0.86433496 12.32865608
O 14.26567763 0.84681756 16.81895205
O 14.24704410 5.41933936 16.78120267
O 9.11698666 1.77378681 16.80636181
O 9.05972878 9.08826603 3.31035034
O 12.96580009 11.80414780 1.09637940
O 14.25359275 12.72978468 3.34105099
O 12.93932241 11.79384490 5.54298393
O 10.44550413 8.07815041 5.47299626
O 10.37532456 12.75949107 5.51823188
O 12.95158011 9.07237703 1.08863464
O 12.97059662 9.05310453 5.48130564
O 9.14685518 11.93203002 7.83272244
O 9.06572715 11.83255869 3.29677543
O 10.38818664 12.73865857 1.08199317
O 10.37218884 8.14436790 1.08131522
O 14.24407593 8.14447918 3.28572577
O 14.19273525 8.19144959 7.77271979
O 14.24085566 12.71643704 7.77811876
O 10.03036690 9.29647806 7.74992871
O 1.25768964 9.10101342 3.25125499
O 5.19949547 11.78931641 1.10427723
O 6.47516575 12.72962223 3.32897603
O 5.21033252 11.80147790 5.55549579
O 2.51938440 8.15921022 5.44617591
O 2.63971620 12.73676985 5.53073286
O 5.19958912 9.04369978 1.11128420
O 5.12918678 9.08699719 5.50243325
O 1.32059468 11.87366338 7.77745342
O 1.31218396 11.82841869 3.30366020
O 2.62501172 12.72651584 1.08424767
O 2.60256252 8.15633366 1.08715129
O 6.48674153 8.16885316 3.34511241
O 6.11559523 8.08834480 7.73038430
O 6.50053649 12.71774360 7.79652137
O 1.23802844 9.15450357 7.66715569
O 1.34556663 1.73945596 3.34171969
O 5.17689215 4.52333281 1.12413593
O 6.47413394 5.44306706 3.34642966
O 5.17154134 4.51401138 5.57463410
O 2.64000052 0.86288368 5.58214354
O 2.57816322 5.41891640 5.54915705
O 5.20808966 1.79579753 1.10832034
O 5.21318680 1.78142387 5.58548266
O 1.26016688 4.47582399 7.75588144
O 1.30761468 4.47370262 3.32691104
O 2.59016547 5.42052280 1.10023845
O 2.63183953 0.85264827 1.09322886
O 6.49766558 0.86926867 3.34018664
O 6.50061133 0.86452509 7.83507986
O 6.46696489 5.32409701 7.83100188
O 1.32108958 1.74772217 7.82001908
O 9.08602426 1.75141558 3.30467431
O 12.98302283 4.51347865 1.09312006
O 14.26250265 5.40591167 3.34075205
O 12.93126594 4.50736163 5.55597501
O 10.38658649 0.89924562 5.55248115
O 10.34796039 5.37835628 5.54707029
O 12.99455406 1.78178269 1.11671079
O 12.97971624 1.77426958 5.59083437
O 9.09297337 4.47527090 7.82109983
O 9.04467738 4.49652670 3.28350995
O 10.38284994 5.39353088 1.06768706
O 10.41667669 0.86618983 1.08236135
O 14.28630975 0.86438810 3.35691672
O 14.26718736 0.84623529 7.81653243
O 14.22677461 5.44741641 7.78126194
O 9.10931801 1.72709791 7.83295747
O 1.29874325 1.77273078 12.35504727
O 5.17369265 4.43229250 10.09352135
O 6.45980881 5.38327260 12.34445901
O 5.17510974 4.48058928 14.60805539
O 2.62630362 0.87065916 14.58589775
O 2.58573721 5.40238642 14.59004852
O 5.18985470 1.70290857 10.09992213
O 5.21950662 1.74299936 14.58128120
O 1.29340718 4.50420141 16.81767843
O 1.30396668 4.50914503 12.33271465
O 2.57987950 5.30120910 10.00011393
O 2.57397474 0.87130267 10.09723975
O 6.50037526 0.83275279 12.34242526
O 6.52456131 0.86830704 16.84012856
O 6.49709495 5.39841743 16.81915506
O 1.31652453 1.76547429 16.81781915
O 9.10254067 9.06223174 12.36920570
O 13.00106815 11.78701768 10.04523490
O 14.25652959 12.72384163 12.32312198
O 12.97134982 11.78247408 14.55372736
O 10.39310892 8.13147580 14.56801505
O 10.39187416 12.70325591 14.57010885
O 13.03611417 9.05279622 10.10535766
O 12.97365761 9.04102956 14.56533331
O 9.07964517 11.80233162 16.80823052
O 9.10526016 11.80809809 12.31294134
O 10.41899326 12.72516180 10.08673892
O 10.51132586 8.10209960 10.21003013
O 14.33322037 8.14033365 12.37393584
O 14.25857500 8.15205094 16.81322508
O 14.24549106 12.71364917 16.79718525
O 9.08840384 9.06025464 16.78918772
O 1.33957494 9.09158843 12.38114438
O 5.22608070 11.88867233 10.08947279
O 6.52082762 12.70662621 12.34994407
O 5.23237035 11.81737210 14.60033021
O 2.65319589 8.15889273 14.62732972
O 2.63504091 12.73929710 14.59052835
O 5.17833609 9.18904432 10.21326301
O 5.23674880 9.07367164 14.60796972
O 1.30307780 11.81552693 16.80561287
O 1.34174620 11.86637348 12.33387382
O 2.61403240 12.74746884 10.06086587
O 2.35939856 7.96686683 9.92427262
O 6.52684883 8.14216230 12.37823817
O 6.51458723 8.14601475 16.84153157
O 6.50421235 12.73852901 16.83525992
O 1.30456473 9.07990680 16.81434515
H 9.55972158 1.41510242 11.54863220
H 9.55080616 1.41122965 13.09476167
H 12.05378609 4.82290882 10.04179132
H 13.38832145 4.86165299 9.26162167
H 13.77305058 5.05134694 13.09233116
H 13.77712274 5.08097977 11.54526998
H 12.01569777 4.77363299 14.54408784
H 12.91675818 3.51517866 14.57256628
H 11.29166684 1.13126727 14.56673405
H 10.39436948 14.47693250 14.56803567
H 9.88829781 5.10343987 13.73059144
H 10.35739563 6.36190983 14.50593854
H 13.44068672 1.46882138 9.27501572
H 12.99288383 2.73673996 10.03877642
H 13.42394240 1.41873204 13.79786881
H 13.43209817 1.41319429 15.34735020
H 9.50894319 4.84120733 15.96521205
H 8.18395492 4.82694558 16.76622313
H 8.12343344 4.76325780 12.31624493
H 9.02764692 3.50597863 12.31576935
H 9.88389799 5.02969861 10.84111865
H 9.89946918 5.05935142 9.29480338
H 11.31019974 1.15989946 10.08659278
H 10.43865214 14.48537210 10.09993723
H 15.15040171 1.19568855 12.32122824
H 13.82297921 1.19700380 11.52918969
H 15.17107194 1.17548316 16.83314861
H 13.83657904 1.18353192 17.61282868
H 13.77911102 5.11632537 15.99583014
H 14.23821771 6.38265744 16.76265112
H 9.55237078 1.46055030 16.00577059
H 9.11705894 2.73663211 16.76463857
H 9.08212160 10.05027108 3.28814193
H 9.51663418 8.77973971 2.52190924
H 13.42033555 12.09862582 0.29975993
H 12.97140296 10.84060768 1.07992887
H 13.78989763 12.39927951 2.56450161
H 13.77829468 12.39301715 4.10980817
H 12.91116268 10.83051043 5.53324704
H 12.02629861 12.10134322 5.54341799
H 9.91995999 8.45249061 4.76184740
H 10.17106694 8.50544483 6.30131966
H 10.37496029 13.72147211 5.49446120
H 9.90477149 12.45717558 4.73459860
H 13.38472222 8.73037452 1.87985311
H 12.04868642 8.73698181 1.10004375
H 13.36189601 8.74980258 6.30698324
H 12.07147063 8.70001359 5.46217780
H 9.54604296 12.24259083 7.01503979
H 8.21804308 12.17588891 7.80135820
H 8.15878456 12.15555042 3.28037185
H 9.50176108 12.16840932 2.50667682
H 10.42780807 13.70127759 1.07721920
H 11.29845826 12.42324861 1.08779176
H 9.91972067 8.44296252 0.28493784
H 10.36387231 7.18192425 1.06088050
H 13.80053611 8.45063194 4.08793617
H 14.24601908 7.18216838 3.32142922
H 15.08180078 8.55435292 7.74821118
H 13.78597756 8.51147543 8.58619463
H 13.76251727 12.37768710 7.01356888
H 13.79574316 12.37272130 8.56073372
H 9.61842720 10.15274585 7.84345323
H 10.08357106 8.89331959 8.61413458
H 1.69262003 8.75137054 4.03836928
H 0.35643940 8.75869965 3.26631099
H 5.21590847 10.82622536 1.12112426
H 5.65039070 12.09191196 1.90059004
H 6.03395155 12.42175395 4.12953063
H 6.46166407 13.69207472 3.35306327
H 5.20553734 10.83585012 5.56406018
H 5.66506818 12.08750941 6.35527317
H 2.06524341 8.48421565 6.22815332
H 2.52958391 7.19762735 5.50332159
H 2.20383377 12.40475866 4.73903056
H 3.53975246 12.39072929 5.52503628
H 4.29219141 8.72113775 1.12768866
H 5.63137959 8.71770322 1.90997534
H 5.49745992 8.72052747 6.32391176
H 4.22148533 8.77554466 5.46652889
H 1.76028049 12.19973905 6.98474312
H 0.41127687 12.19134043 7.75152565
H 1.27102451 10.86525693 3.28936583
H 0.40019209 12.13790510 3.32169260
H 3.52428823 12.38153478 1.10609483
H 2.18153601 12.40015923 1.87524669
H 2.11544675 8.49681513 1.84664247
H 2.14921372 8.49322091 0.30626073
H 7.38704155 8.51169925 3.35965164
H 6.04196332 8.50214526 4.13494545
H 6.27977958 7.14944941 7.81370981
H 6.05851053 12.42966009 8.60089738
H 6.48886942 13.68007057 7.81519717
H 1.68008140 8.81356320 8.43588562
H 1.28349618 10.11726776 7.71740101
H 1.81539134 1.40817290 2.56868018
H 1.82448210 1.42657516 4.11758065
H 5.60992488 4.86228677 1.91596140
H 4.27344506 4.85733607 1.13327178
H 7.38481091 5.13028136 3.32607939
H 6.50985965 6.40665086 3.35422649
H 5.64920679 4.86153891 4.81408672
H 5.64213464 4.81686706 6.36085155
H 2.66672332 14.50172302 5.56838355
H 3.55488041 1.16620452 5.58641397
H 3.48794811 5.10099151 5.54906419
H 2.15937119 5.06664952 4.75605680
H 5.16822685 2.75889410 1.11933776
H 4.29797807 1.48027380 1.10020846
H 5.21074420 2.74523061 5.55809421
H 5.67552333 1.48439797 4.79472022
H 1.70112865 4.82038946 6.97114164
H 0.36303114 4.82816350 7.75021559
H 1.75771637 4.78540755 2.53412731
H 1.33367038 3.51088852 3.30562906
H 2.57535201 6.38409363 1.07947010
H 2.13220702 5.12023165 0.30724667
H 2.16595550 1.15532089 0.30592810
H 2.62517783 14.49136656 1.06746349
H 6.05915730 1.20715185 2.55201741
H 7.40873172 1.18084292 3.30791697
H 6.02241616 1.17260895 8.61178878
H 6.03638071 1.20826663 7.06500102
H 7.38451137 5.03673930 7.85153713
H 6.05026617 4.98987468 8.63017924
H 1.79046087 1.44590092 7.03479290
H 1.29865362 2.70959654 7.77235169
H 9.55824551 1.44837521 4.08804683
H 9.56933963 1.42015295 2.54031248
H 13.44741683 4.84925023 1.86779104
H 13.44871522 4.84566662 0.31804647
H 15.16266744 5.06512654 3.36871072
H 13.81107228 5.07788910 4.12672739
H 12.01005656 4.79359200 5.54531721
H 12.92460578 3.54453517 5.57577236
H 9.95229661 1.19405690 6.36033142
H 11.29416464 1.21936981 5.58918537
H 9.88326019 5.08841326 4.75668025
H 10.35110086 6.34471605 5.52424947
H 13.44980776 1.48324925 1.91139370
H 13.00607953 2.74533063 1.13265965
H 13.45339143 1.44585626 4.81931438
H 13.44777788 1.44125422 6.36473660
H 9.53093456 4.78520673 7.02152475
H 9.11785672 3.51381528 7.79847679
H 9.51957827 4.79046621 2.49904493
H 9.06373810 3.53410698 3.27201238
H 11.29092569 5.07359256 1.05624603
H 9.95812820 5.06663546 0.26733680
H 11.31807609 1.20579274 1.07421959
H 9.98394287 1.20058785 0.28857117
H 15.20718193 1.14740705 3.35326807
H 14.29202227 14.50299693 3.34994929
H 14.26990346 14.48455846 7.81081232
H 15.18794354 1.12861242 7.81792401
H 14.20968241 6.41012357 7.75860894
H 13.75750226 5.14246590 6.99703941
H 9.54095398 1.40086217 8.62925723
H 8.19951891 1.41259890 7.85784366
H 1.31154697 2.73545719 12.37988724
H 1.76868435 1.46955701 13.13928020
H 5.20005091 3.46948788 10.12878788
H 5.61544174 4.75257900 10.88650453
H 6.00365340 5.09691464 13.14244913
H 6.47116496 6.34571532 12.36326709
H 5.16644769 3.51727559 14.59444712
H 4.25716760 4.77043336 14.60007578
H 3.54620827 1.15689273 14.58340803
H 2.64088843 14.50901566 14.58982804
H 2.60516264 6.36486581 14.58025383
H 2.13803850 5.12520824 13.78365527
H 5.62777292 1.37049824 10.89106666
H 4.27877531 1.39277149 10.12840936
H 5.69556181 1.42354138 15.35454060
H 5.68891754 1.41411564 13.80641129
H 0.38696067 4.82921684 16.78569910
H 1.72901244 4.83169423 16.02249046
H 0.39451694 4.82826326 12.30721988
H 1.72535226 4.79365314 11.51756471
H 3.48867020 4.97721056 10.01249114
H 2.15617350 4.95597424 9.20605436
H 2.11752522 1.20561512 9.31768863
H 2.10150551 1.20150100 10.86885976
H 6.53227597 14.47156537 12.35123005
H 7.41495227 1.13640440 12.32705487
H 7.42940604 1.19704898 16.85638382
H 6.08246042 1.21886222 17.62107421
H 6.02908504 5.07789257 17.59728098
H 6.01499636 5.06708063 16.05317428
H 1.31689445 2.72878917 16.79913967
H 1.77802194 1.47307608 16.02380579
H 8.18739490 8.76230601 12.36468098
H 9.08284662 10.02430079 12.33742617
H 13.44858397 12.09742627 10.83830880
H 13.01527974 10.82372507 10.08086688
H 14.26069491 13.68729014 12.32367734
H 15.17849993 12.44836756 12.32452239
H 13.42398078 12.08710454 13.75953399
H 12.98485047 10.81951634 14.53262647
H 9.92027354 8.46253952 15.33906613
H 9.93062525 8.48108813 13.79651391
H 9.94976698 12.37201597 15.35873692
H 11.29223429 12.36092921 14.58781156
H 13.49036820 8.72920461 10.88803019
H 12.13595517 8.70597488 10.15802498
H 12.06862465 8.70951796 14.58147906
H 13.40399674 8.72200702 15.36582995
H 9.52161626 12.13981580 17.59468166
H 8.17854107 12.14203979 16.83122201
H 9.57633524 12.13637575 13.08557592
H 9.57579442 12.13449560 11.53765212
H 9.97699815 12.44078831 9.27647616
H 11.31398268 12.37181561 10.05221094
H 9.99412907 8.40823281 10.95964034
H 10.42927642 7.14479951 10.17647353
H 14.29266241 7.17772496 12.38016405
H 13.84412519 8.44028262 13.14891598
H 15.16124035 8.48818572 16.82847317
H 13.82077352 8.48332181 17.60509135
H 13.79840273 12.41099044 15.99931765
H 14.23172927 13.67665714 16.78041084
H 9.06469614 10.02305285 16.79563359
H 8.17310417 8.75953989 16.80920006
H 1.75523290 8.74641689 11.60306166
H 0.43493868 8.74673693 12.38003774
H 5.65504500 12.20631840 10.89226526
H 4.32089958 12.21784255 10.09940760
H 6.09272044 12.37258312 13.14560449
H 7.42458774 12.37154950 12.35170032
H 4.32628190 12.14296388 14.61036817
H 5.65954349 12.16496204 15.39107491
H 2.22282389 8.50036585 13.83963372
H 3.55971225 8.48721419 14.61026413
H 2.17507294 12.42324382 13.80581547
H 2.14843675 12.40469190 15.35132968
H 5.22067306 10.15412526 10.15638089
H 5.86485652 8.41843200 8.58723579
H 5.68982771 8.77036005 15.40260226
H 5.24935311 10.03677739 14.62892317
H 0.39893405 12.14684098 16.82569039
H 1.74406067 12.14502110 17.59587291
H 1.35027344 10.90646366 12.32567949
H 1.78794746 12.15300773 11.52917560
H 2.58170314 13.71132351 10.05733565
H 2.16091883 12.45749089 9.26285457
H 2.45816241 6.99804973 9.93459834
H 4.26039446 8.98286650 10.29302248
H 6.06446812 8.50870599 11.62012134
H 6.06943862 8.47631241 13.15803978
H 6.04628242 8.43480793 17.63325777
H 6.49872614 7.18299548 16.84583653
H 6.04359189 12.42715377 17.62204339
H 6.49563708 13.70164901 16.86467946
H 1.31687201 10.04297861 16.78957284
H 1.78201794 8.77614739 16.03444313
