383
 generated by VMD
 O         9.092907        1.711159       12.330636
 O        12.973744        4.481897       10.065955
 O        14.224300        5.416471       12.314681
 O        12.957241        4.504298       14.551990
 O        10.398320        0.872139       14.573122
 O        10.380289        5.413782       14.576721
 O        12.982104        1.743482       10.085200
 O        12.971230        1.772238       14.559844
 O         9.073720        4.494747       16.803240
 O         9.136375        4.449133       12.329033
 O        10.388535        5.412585       10.100966
 O        10.384039        0.873061       10.069417
 O        14.267236        0.856038       12.333558
 O        14.260574        0.846029       16.786030
 O        14.271567        5.411043       16.778822
 O         9.069845        1.749745       16.791262
 O         9.172626        9.023731        3.293697
 O        12.971271       11.798874        1.080644
 O        14.254595       12.719079        3.323328
 O        12.987883       11.810179        5.573400
 O        10.424227        8.154112        5.569995
 O        10.388757       12.699786        5.585320
 O        12.949096        9.061334        1.058019
 O        12.994643        9.070753        5.569360
 O         9.074675       11.831799        7.838593
 O         9.133053       11.781275        3.315198
 O        10.388026       12.712140        1.052945
 O        10.388057        8.105372        1.032249
 O        14.233755        8.171461        3.305038
 O        14.177369        8.110685        7.839318
 O        14.272738       12.684278        7.827473
 O         9.168828        9.085595        7.817545
 O         1.288270        9.048841        3.309978
 O         5.231032       11.821791        1.063735
 O         6.551845       12.727090        3.300931
 O         5.216271       11.993698        5.600950
 O         2.474375        8.133017        5.626107
 O         2.568393       12.769582        5.562469
 O         5.220271        9.083914        1.088747
 O         4.923339        9.233781        5.805065
 O         1.310521       11.782462        7.810216
 O         1.310205       11.791048        3.318509
 O         2.626770       12.706878        1.092705
 O         2.624063        8.152816        1.083555
 O         6.627589        8.170991        3.327060
 O         6.665941        8.015612        7.747867
 O         6.516254       12.839753        7.842033
 O         1.209079        9.033004        7.842325
 O         1.309267        1.792013        3.342001
 O         5.180044        4.485567        1.065312
 O         6.514042        5.378797        3.286309
 O         5.225635        4.475154        5.567246
 O         2.583212        0.899044        5.597400
 O         2.618500        5.391823        5.613520
 O         5.167229        1.748840        1.047350
 O         5.204593        1.747636        5.527692
 O         1.303576        4.473210        7.837342
 O         1.312280        4.535274        3.347986
 O         2.593044        5.413161        1.086727
 O         2.581412        0.841905        1.106154
 O         6.510356        0.859287        3.269559
 O         6.524544        0.964856        7.815717
 O         6.521043        5.311699        7.842865
 O         1.295792        1.745498        7.871615
 O         9.119452        1.748781        3.334427
 O        12.991135        4.504312        1.084152
 O        14.256071        5.426044        3.326566
 O        12.959158        4.480272        5.553430
 O        10.416720        0.837578        5.582222
 O        10.376577        5.413223        5.579989
 O        12.970675        1.767552        1.078507
 O        13.012426        1.732922        5.586394
 O         9.132849        4.509390        7.842871
 O         9.115803        4.481599        3.343236
 O        10.392652        5.366465        1.083644
 O        10.379716        0.848181        1.082134
 O        14.268080        0.859092        3.313701
 O        14.253449        0.810451        7.853665
 O        14.242947        5.375173        7.808633
 O         9.136453        1.787646        7.812442
 O         1.310433        1.747898       12.347413
 O         5.198888        4.479328       10.082579
 O         6.519907        5.318091       12.338511
 O         5.181092        4.507247       14.543227
 O         2.602775        0.844384       14.578588
 O         2.597850        5.398744       14.548749
 O         5.198781        1.755470       10.082147
 O         5.178236        1.779733       14.532701
 O         1.310984        4.490210       16.777191
 O         1.274253        4.473691       12.333151
 O         2.595725        5.355010       10.092178
 O         2.600699        0.863683       10.116571
 O         6.497150        0.836764       12.317300
 O         6.481792        0.858897       16.751921
 O         6.486652        5.406656       16.785614
 O         1.311958        1.750603       16.811468
 O         9.181810        9.069639       12.339581
 O        12.972483       11.819597       10.069274
 O        14.273084       12.723125       12.302693
 O        13.003196       11.803514       14.543313
 O        10.419429        8.142330       14.554310
 O        10.440618       12.733740       14.575315
 O        12.939951        9.080990       10.064728
 O        13.009089        9.058313       14.518221
 O         9.080330       11.797771       16.767614
 O         9.132358       11.827296       12.320451
 O        10.396791       12.738489       10.071823
 O        10.379304        8.167063       10.089788
 O        14.274209        8.154971       12.271894
 O        14.245893        8.151311       16.780867
 O        14.274985       12.713513       16.795979
 O         9.083812        9.046344       16.764606
 O         1.309179        9.070158       12.340039
 O         5.167427       11.961747       10.026916
 O         6.531198       12.684669       12.318004
 O         5.189478       11.795588       14.520589
 O         2.573399        8.142773       14.586564
 O         2.627892       12.714716       14.550355
 O         4.817505        9.437056        9.403329
 O         5.153503        9.092712       14.592080
 O         1.328253       11.820468       16.793249
 O         1.331949       11.813478       12.305205
 O         2.578650       12.748997       10.059410
 O         2.475292        8.098234       10.049253
 O         6.751247        8.096182       12.528948
 O         6.491056        8.142928       16.785282
 O         6.494381       12.714181       16.740946
 O         1.291359        9.079314       16.825361
 H         9.524157        1.398252       11.527953
 H         8.182997        1.395379       12.304133
 H        12.991927        3.518909       10.057346
 H        13.423337        4.773521        9.265300
 H        14.235204        6.379306       12.279963
 H        13.784566        5.113705       11.512735
 H        12.052519        4.837010       14.550533
 H        13.377704        4.840592       13.752518
 H         9.918719        1.169957       13.792013
 H         9.915093        1.197230       15.340899
 H         9.916224        5.122677       15.368731
 H        10.370945        6.377993       14.581704
 H        13.451217        1.420999       10.862235
 H        13.441822        1.394052        9.313816
 H        12.947769        2.735704       14.559407
 H        12.054137        1.475186       14.561498
 H         9.080275        3.531852       16.810507
 H         9.539472        4.777288       17.598169
 H         9.569807        4.764471       13.128796
 H         9.144227        3.487057       12.359968
 H        11.291644        5.079392       10.104426
 H         9.963886        5.063941       10.892713
 H         9.961618        1.206908        9.270066
 H        11.290632        1.198128       10.061241
 H        13.825458        1.193445       13.120510
 H        15.175741        1.176403       12.362675
 H        13.804845        1.147022       15.992522
 H        14.251053       14.484884       16.768169
 H        13.828045        5.077189       15.991527
 H        15.174397        5.074985       16.753677
 H         8.163597        1.422619       16.805380
 H         9.503348        1.419332       17.585527
 H         9.644681        8.703150        4.071214
 H         9.629661        8.682909        2.515530
 H        12.057192       12.103179        1.065144
 H        12.940639       10.835789        1.079007
 H        13.797580       12.416888        2.530987
 H        14.255169       13.682000        3.294728
 H        13.411584       12.150311        4.777474
 H        12.078247       12.126518        5.560895
 H         9.995483        8.500517        6.360366
 H        11.330231        8.482683        5.586899
 H         9.909917       12.378972        6.357085
 H         9.930451       12.363236        4.808321
 H        13.388472        8.732091        0.265882
 H        12.050355        8.714906        1.033821
 H        13.439656        8.770672        4.768880
 H        13.006072       10.033742        5.547123
 H         9.521302       12.163172        8.624808
 H         8.177951       12.182974        7.863593
 H         9.164020       10.820173        3.282390
 H         9.579987       12.096766        2.522155
 H        10.375277       13.675381        1.043734
 H         9.918364       12.417102        0.265405
 H        10.371882        7.142265        1.018328
 H         9.915262        8.409550        0.248916
 H        15.140602        8.494571        3.273432
 H        13.795188        8.493064        2.509526
 H        13.742127        8.460403        7.054339
 H        13.708828        8.463423        8.604103
 H        13.836961       12.359997        7.031630
 H        15.178935       12.356241        7.800696
 H         9.595076        8.787725        8.629705
 H         9.132800       10.047395        7.854156
 H         1.715156        8.704883        4.100050
 H         1.781833        8.717886        2.551554
 H         5.687007       12.148787        0.280169
 H         5.713253       12.154254        1.827747
 H         6.114372       12.449375        4.110719
 H         7.448740       12.376570        3.332700
 H         5.143953       11.049994        5.688873
 H         5.670289       12.302820        6.395535
 H         1.986367        8.411840        6.412384
 H         2.516533        7.170611        5.646201
 H         2.159212       12.419226        4.764025
 H         3.494855       12.514089        5.541887
 H         5.237247       10.048362        1.091342
 H         5.699563        8.801620        1.869471
 H         6.225678        8.389353        6.997990
 H         4.031919        8.846935        5.774244
 H         1.306468       10.819406        7.795318
 H         1.762257       12.080656        7.014852
 H         0.397209       12.098192        3.315722
 H         1.278841       10.828571        3.321908
 H         2.187620       12.358672        1.876159
 H         3.535521       12.388580        1.113005
 H         2.176384        8.498672        0.303316
 H         3.525662        8.488280        1.061553
 H         6.273885        8.487444        4.143086
 H         7.550120        8.471532        3.307582
 H         5.486210        8.854201        9.060807
 H         7.549444        8.401079        7.772268
 H         6.523196       13.802844        7.854289
 H         6.037871       12.556821        8.632174
 H         1.642256        8.690724        8.634455
 H         0.300288        8.713984        7.867126
 H         1.321889        2.755292        3.351849
 H         1.756444        1.504215        4.145507
 H         5.149083        3.522265        1.064134
 H         4.266926        4.791861        1.073497
 H         6.042587        5.085905        2.498022
 H         6.531655        6.336926        3.259502
 H         5.670718        4.778743        4.770632
 H         5.224746        3.511922        5.527284
 H         2.138160        1.189428        6.400461
 H         2.547091       14.538622        5.600803
 H         3.524723        5.067449        5.624878
 H         2.183132        5.041924        6.398933
 H         4.265050        1.414151        1.091567
 H         5.622808        1.425636        1.832208
 H         5.626410        1.412236        4.729942
 H         4.295509        1.430660        5.526793
 H         0.391635        4.782342        7.821641
 H         1.269376        3.510285        7.848823
 H         1.782465        4.859621        2.572284
 H         1.791446        4.849995        4.121527
 H         2.594635        6.376095        1.059130
 H         2.135800        5.113291        0.294106
 H         2.578883       14.480808        1.131118
 H         2.137245        1.147811        1.904387
 H         7.421766        1.169259        3.294432
 H         6.553386       14.499041        3.269102
 H         6.092463        1.257300        7.007154
 H         7.434366        1.279823        7.784976
 H         6.558033        6.273253        7.799731
 H         6.078429        5.019852        7.038845
 H         0.397333        1.399030        7.889718
 H         1.736254        1.430569        8.668342
 H         9.570743        1.444691        4.128934
 H         9.130982        2.712020        3.361479
 H        13.458397        4.839528        1.857461
 H        13.454416        4.841888        0.310089
 H        14.269964        6.389183        3.322115
 H        15.175059        5.136339        3.341082
 H        13.393733        4.822655        4.764912
 H        12.054056        4.809199        5.537815
 H        11.337632        1.118647        5.579432
 H        10.419313       14.476244        5.587083
 H        10.383293        6.376396        5.601419
 H         9.936453        5.122222        6.386413
 H        12.991158        2.730595        1.058328
 H        13.425174        1.462980        0.285745
 H        13.458973        1.442996        4.783322
 H        13.002624        2.695585        5.560608
 H         8.211843        4.792315        7.865986
 H         9.549919        4.838637        8.646930
 H         8.207090        4.798709        3.340506
 H         9.529368        4.828238        4.142073
 H        11.302503        5.050182        1.103508
 H         9.966935        5.048798        1.887271
 H        11.282794        1.182657        1.093013
 H         9.955861        1.172768        1.884764
 H        13.831619        1.192393        2.522129
 H        15.170558        1.196161        3.298177
 H        14.245897       14.449338        7.818795
 H        13.818857        1.120564        7.051755
 H        14.210284        6.338302        7.805766
 H        13.786657        5.083311        7.012246
 H         9.164778        2.751086        7.795476
 H         9.591117        1.476002        7.022539
 H         1.781546        1.418112       13.120633
 H         1.786097        1.427068       11.572301
 H         4.296280        4.814031       10.067502
 H         5.633131        4.802343        9.285656
 H         7.423721        4.993249       12.302176
 H         6.081518        5.033149       11.531073
 H         5.672161        4.810576       13.768856
 H         5.650148        4.836764       15.316832
 H         2.604735       14.482712       14.591019
 H         2.144641        1.133701       15.375210
 H         3.509651        5.088052       14.515845
 H         2.157794        5.069527       13.758004
 H         5.199248        2.719962       10.078432
 H         5.661587        1.486874        9.281688
 H         5.155007        2.743656       14.536438
 H         4.264568        1.475951       14.548249
 H         1.326995        3.527139       16.774405
 H         1.778091        4.779837       15.985406
 H         1.251298        3.510544       12.343924
 H         0.361598        4.779607       12.330373
 H         2.121318        5.026110       10.862329
 H         2.123033        5.033037        9.317678
 H         3.519152        1.153661       10.094311
 H         2.611730       14.501419       10.091824
 H         6.022332        1.175071       13.083633
 H         6.031984        1.164381       11.539927
 H         6.000397        1.176565       17.523323
 H         6.018285        1.200601       15.979088
 H         6.042799        5.066106       17.569798
 H         7.391703        5.078987       16.815268
 H         1.737895        1.421934       17.611225
 H         0.405671        1.424557       16.824440
 H         9.132416       10.029181       12.326313
 H         8.268894        8.737329       12.400391
 H        13.451047       12.129959        9.292737
 H        13.445657       12.147454       10.841643
 H        14.258811       13.685643       12.337992
 H        13.823508       12.412896       13.096507
 H        13.439070       12.122287       15.340723
 H        12.098818       12.136202       14.573295
 H        11.326344        8.463850       14.539748
 H         9.996379        8.486270       13.755809
 H        10.415320       13.695942       14.601929
 H         9.955720       12.420856       15.346518
 H        12.023493        8.780700       10.087516
 H        12.922530       10.043833       10.066451
 H        13.459230        8.764321       13.718522
 H        13.018261       10.020981       14.506313
 H         9.060802       10.834857       16.767954
 H         8.163928       12.094407       16.752321
 H         9.594950       12.156446       11.542720
 H         9.607082       12.156671       13.089043
 H        11.312782       12.440562       10.061462
 H        10.417713       13.701365       10.064472
 H        10.369715        7.204968       10.110342
 H         9.928819        8.467628       10.890624
 H        13.836834        8.493673       11.483382
 H        15.178974        8.487723       12.262990
 H        14.250093        7.188192       16.761206
 H        13.811734        8.445255       15.972317
 H        13.839520       12.377848       17.587231
 H        15.184359       12.396278       16.818773
 H         8.179921        8.714683       16.737745
 H         9.526855        8.726183       15.970663
 H         1.762252        8.770997       13.135482
 H         1.342408       10.032264       12.342309
 H         5.105363       11.002330        9.900617
 H         5.648505       12.130402       10.840839
 H         6.543168       13.646430       12.321288
 H         7.449939       12.396155       12.317745
 H         5.187992       10.829879       14.522201
 H         5.667034       12.074461       13.731245
 H         2.115511        8.437118       15.380080
 H         2.567360        7.180297       14.595217
 H         2.187094       12.394462       13.756115
 H         3.532699       12.381006       14.517379
 H         4.076546        8.905267        9.690765
 H         4.256532        8.746552       14.596306
 H         5.590364        8.747787       15.376585
 H         1.805539       12.144466       17.564772
 H         1.799794       12.140688       16.016457
 H         0.427563       12.142698       12.289145
 H         1.759843       12.141550       11.506351
 H         2.165566       12.398376        9.264274
 H         3.500529       12.459320       10.045752
 H         2.520005        7.139118       10.101169
 H         2.089005        8.410968       10.872155
 H         6.621973        7.151905       12.458437
 H         6.155180        8.418177       13.203142
 H         6.051117        8.446531       17.584990
 H         6.473752        7.179906       16.805353
 H         6.477037       13.676630       16.718880
 H         6.028742       12.408960       15.953560
 H         0.374530        8.784701       16.819675
 H         1.279273       10.042262       16.809721
383
 generated by VMD
 O         9.092907        1.711159       12.330636
 O        12.973744        4.481897       10.065955
 O        14.224300        5.416471       12.314681
 O        12.957241        4.504298       14.551990
 O        10.398320        0.872139       14.573122
 O        10.380289        5.413782       14.576721
 O        12.982104        1.743482       10.085200
 O        12.971230        1.772238       14.559844
 O         9.073720        4.494747       16.803240
 O         9.136375        4.449133       12.329033
 O        10.388535        5.412585       10.100966
 O        10.384039        0.873061       10.069417
 O        14.267236        0.856038       12.333558
 O        14.260574        0.846029       16.786030
 O        14.271567        5.411043       16.778822
 O         9.069845        1.749745       16.791262
 O         9.172626        9.023731        3.293697
 O        12.971271       11.798874        1.080644
 O        14.254595       12.719079        3.323328
 O        12.987883       11.810179        5.573400
 O        10.424227        8.154112        5.569995
 O        10.388757       12.699786        5.585320
 O        12.949096        9.061334        1.058019
 O        12.994643        9.070753        5.569360
 O         9.074675       11.831799        7.838593
 O         9.133053       11.781275        3.315198
 O        10.388026       12.712140        1.052945
 O        10.388057        8.105372        1.032249
 O        14.233755        8.171461        3.305038
 O        14.177369        8.110685        7.839318
 O        14.272738       12.684278        7.827473
 O         9.168828        9.085595        7.817545
 O         1.288270        9.048841        3.309978
 O         5.231032       11.821791        1.063735
 O         6.551845       12.727090        3.300931
 O         5.216271       11.993698        5.600950
 O         2.474375        8.133017        5.626107
 O         2.568393       12.769582        5.562469
 O         5.220271        9.083914        1.088747
 O         4.923339        9.233781        5.805065
 O         1.310521       11.782462        7.810216
 O         1.310205       11.791048        3.318509
 O         2.626770       12.706878        1.092705
 O         2.624063        8.152816        1.083555
 O         6.627589        8.170991        3.327060
 O         6.665941        8.015612        7.747867
 O         6.516254       12.839753        7.842033
 O         1.209079        9.033004        7.842325
 O         1.309267        1.792013        3.342001
 O         5.180044        4.485567        1.065312
 O         6.514042        5.378797        3.286309
 O         5.225635        4.475154        5.567246
 O         2.583212        0.899044        5.597400
 O         2.618500        5.391823        5.613520
 O         5.167229        1.748840        1.047350
 O         5.204593        1.747636        5.527692
 O         1.303576        4.473210        7.837342
 O         1.312280        4.535274        3.347986
 O         2.593044        5.413161        1.086727
 O         2.581412        0.841905        1.106154
 O         6.510356        0.859287        3.269559
 O         6.524544        0.964856        7.815717
 O         6.521043        5.311699        7.842865
 O         1.295792        1.745498        7.871615
 O         9.119452        1.748781        3.334427
 O        12.991135        4.504312        1.084152
 O        14.256071        5.426044        3.326566
 O        12.959158        4.480272        5.553430
 O        10.416720        0.837578        5.582222
 O        10.376577        5.413223        5.579989
 O        12.970675        1.767552        1.078507
 O        13.012426        1.732922        5.586394
 O         9.132849        4.509390        7.842871
 O         9.115803        4.481599        3.343236
 O        10.392652        5.366465        1.083644
 O        10.379716        0.848181        1.082134
 O        14.268080        0.859092        3.313701
 O        14.253449        0.810451        7.853665
 O        14.242947        5.375173        7.808633
 O         9.136453        1.787646        7.812442
 O         1.310433        1.747898       12.347413
 O         5.198888        4.479328       10.082579
 O         6.519907        5.318091       12.338511
 O         5.181092        4.507247       14.543227
 O         2.602775        0.844384       14.578588
 O         2.597850        5.398744       14.548749
 O         5.198781        1.755470       10.082147
 O         5.178236        1.779733       14.532701
 O         1.310984        4.490210       16.777191
 O         1.274253        4.473691       12.333151
 O         2.595725        5.355010       10.092178
 O         2.600699        0.863683       10.116571
 O         6.497150        0.836764       12.317300
 O         6.481792        0.858897       16.751921
 O         6.486652        5.406656       16.785614
 O         1.311958        1.750603       16.811468
 O         9.181810        9.069639       12.339581
 O        12.972483       11.819597       10.069274
 O        14.273084       12.723125       12.302693
 O        13.003196       11.803514       14.543313
 O        10.419429        8.142330       14.554310
 O        10.440618       12.733740       14.575315
 O        12.939951        9.080990       10.064728
 O        13.009089        9.058313       14.518221
 O         9.080330       11.797771       16.767614
 O         9.132358       11.827296       12.320451
 O        10.396791       12.738489       10.071823
 O        10.379304        8.167063       10.089788
 O        14.274209        8.154971       12.271894
 O        14.245893        8.151311       16.780867
 O        14.274985       12.713513       16.795979
 O         9.083812        9.046344       16.764606
 O         1.309179        9.070158       12.340039
 O         5.167427       11.961747       10.026916
 O         6.531198       12.684669       12.318004
 O         5.189478       11.795588       14.520589
 O         2.573399        8.142773       14.586564
 O         2.627892       12.714716       14.550355
 O         4.817505        9.437056        9.403329
 O         5.153503        9.092712       14.592080
 O         1.328253       11.820468       16.793249
 O         1.331949       11.813478       12.305205
 O         2.578650       12.748997       10.059410
 O         2.475292        8.098234       10.049253
 O         6.751247        8.096182       12.528948
 O         6.491056        8.142928       16.785282
 O         6.494381       12.714181       16.740946
 O         1.291359        9.079314       16.825361
 H         9.524157        1.398252       11.527953
 H         8.182997        1.395379       12.304133
 H        12.991927        3.518909       10.057346
 H        13.423337        4.773521        9.265300
 H        14.235204        6.379306       12.279963
 H        13.784566        5.113705       11.512735
 H        12.052519        4.837010       14.550533
 H        13.377704        4.840592       13.752518
 H         9.918719        1.169957       13.792013
 H         9.915093        1.197230       15.340899
 H         9.916224        5.122677       15.368731
 H        10.370945        6.377993       14.581704
 H        13.451217        1.420999       10.862235
 H        13.441822        1.394052        9.313816
 H        12.947769        2.735704       14.559407
 H        12.054137        1.475186       14.561498
 H         9.080275        3.531852       16.810507
 H         9.539472        4.777288       17.598169
 H         9.569807        4.764471       13.128796
 H         9.144227        3.487057       12.359968
 H        11.291644        5.079392       10.104426
 H         9.963886        5.063941       10.892713
 H         9.961618        1.206908        9.270066
 H        11.290632        1.198128       10.061241
 H        13.825458        1.193445       13.120510
 H        15.175741        1.176403       12.362675
 H        13.804845        1.147022       15.992522
 H        14.251053       14.484884       16.768169
 H        13.828045        5.077189       15.991527
 H        15.174397        5.074985       16.753677
 H         8.163597        1.422619       16.805380
 H         9.503348        1.419332       17.585527
 H         9.644681        8.703150        4.071214
 H         9.629661        8.682909        2.515530
 H        12.057192       12.103179        1.065144
 H        12.940639       10.835789        1.079007
 H        13.797580       12.416888        2.530987
 H        14.255169       13.682000        3.294728
 H        13.411584       12.150311        4.777474
 H        12.078247       12.126518        5.560895
 H         9.995483        8.500517        6.360366
 H        11.330231        8.482683        5.586899
 H         9.909917       12.378972        6.357085
 H         9.930451       12.363236        4.808321
 H        13.388472        8.732091        0.265882
 H        12.050355        8.714906        1.033821
 H        13.439656        8.770672        4.768880
 H        13.006072       10.033742        5.547123
 H         9.521302       12.163172        8.624808
 H         8.177951       12.182974        7.863593
 H         9.164020       10.820173        3.282390
 H         9.579987       12.096766        2.522155
 H        10.375277       13.675381        1.043734
 H         9.918364       12.417102        0.265405
 H        10.371882        7.142265        1.018328
 H         9.915262        8.409550        0.248916
 H        15.140602        8.494571        3.273432
 H        13.795188        8.493064        2.509526
 H        13.742127        8.460403        7.054339
 H        13.708828        8.463423        8.604103
 H        13.836961       12.359997        7.031630
 H        15.178935       12.356241        7.800696
 H         9.595076        8.787725        8.629705
 H         9.132800       10.047395        7.854156
 H         1.715156        8.704883        4.100050
 H         1.781833        8.717886        2.551554
 H         5.687007       12.148787        0.280169
 H         5.713253       12.154254        1.827747
 H         6.114372       12.449375        4.110719
 H         7.448740       12.376570        3.332700
 H         5.143953       11.049994        5.688873
 H         5.670289       12.302820        6.395535
 H         1.986367        8.411840        6.412384
 H         2.516533        7.170611        5.646201
 H         2.159212       12.419226        4.764025
 H         3.494855       12.514089        5.541887
 H         5.237247       10.048362        1.091342
 H         5.699563        8.801620        1.869471
 H         6.225678        8.389353        6.997990
 H         4.031919        8.846935        5.774244
 H         1.306468       10.819406        7.795318
 H         1.762257       12.080656        7.014852
 H         0.397209       12.098192        3.315722
 H         1.278841       10.828571        3.321908
 H         2.187620       12.358672        1.876159
 H         3.535521       12.388580        1.113005
 H         2.176384        8.498672        0.303316
 H         3.525662        8.488280        1.061553
 H         6.273885        8.487444        4.143086
 H         7.550120        8.471532        3.307582
 H         5.486210        8.854201        9.060807
 H         7.549444        8.401079        7.772268
 H         6.523196       13.802844        7.854289
 H         6.037871       12.556821        8.632174
 H         1.642256        8.690724        8.634455
 H         0.300288        8.713984        7.867126
 H         1.321889        2.755292        3.351849
 H         1.756444        1.504215        4.145507
 H         5.149083        3.522265        1.064134
 H         4.266926        4.791861        1.073497
 H         6.042587        5.085905        2.498022
 H         6.531655        6.336926        3.259502
 H         5.670718        4.778743        4.770632
 H         5.224746        3.511922        5.527284
 H         2.138160        1.189428        6.400461
 H         2.547091       14.538622        5.600803
 H         3.524723        5.067449        5.624878
 H         2.183132        5.041924        6.398933
 H         4.265050        1.414151        1.091567
 H         5.622808        1.425636        1.832208
 H         5.626410        1.412236        4.729942
 H         4.295509        1.430660        5.526793
 H         0.391635        4.782342        7.821641
 H         1.269376        3.510285        7.848823
 H         1.782465        4.859621        2.572284
 H         1.791446        4.849995        4.121527
 H         2.594635        6.376095        1.059130
 H         2.135800        5.113291        0.294106
 H         2.578883       14.480808        1.131118
 H         2.137245        1.147811        1.904387
 H         7.421766        1.169259        3.294432
 H         6.553386       14.499041        3.269102
 H         6.092463        1.257300        7.007154
 H         7.434366        1.279823        7.784976
 H         6.558033        6.273253        7.799731
 H         6.078429        5.019852        7.038845
 H         0.397333        1.399030        7.889718
 H         1.736254        1.430569        8.668342
 H         9.570743        1.444691        4.128934
 H         9.130982        2.712020        3.361479
 H        13.458397        4.839528        1.857461
 H        13.454416        4.841888        0.310089
 H        14.269964        6.389183        3.322115
 H        15.175059        5.136339        3.341082
 H        13.393733        4.822655        4.764912
 H        12.054056        4.809199        5.537815
 H        11.337632        1.118647        5.579432
 H        10.419313       14.476244        5.587083
 H        10.383293        6.376396        5.601419
 H         9.936453        5.122222        6.386413
 H        12.991158        2.730595        1.058328
 H        13.425174        1.462980        0.285745
 H        13.458973        1.442996        4.783322
 H        13.002624        2.695585        5.560608
 H         8.211843        4.792315        7.865986
 H         9.549919        4.838637        8.646930
 H         8.207090        4.798709        3.340506
 H         9.529368        4.828238        4.142073
 H        11.302503        5.050182        1.103508
 H         9.966935        5.048798        1.887271
 H        11.282794        1.182657        1.093013
 H         9.955861        1.172768        1.884764
 H        13.831619        1.192393        2.522129
 H        15.170558        1.196161        3.298177
 H        14.245897       14.449338        7.818795
 H        13.818857        1.120564        7.051755
 H        14.210284        6.338302        7.805766
 H        13.786657        5.083311        7.012246
 H         9.164778        2.751086        7.795476
 H         9.591117        1.476002        7.022539
 H         1.781546        1.418112       13.120633
 H         1.786097        1.427068       11.572301
 H         4.296280        4.814031       10.067502
 H         5.633131        4.802343        9.285656
 H         7.423721        4.993249       12.302176
 H         6.081518        5.033149       11.531073
 H         5.672161        4.810576       13.768856
 H         5.650148        4.836764       15.316832
 H         2.604735       14.482712       14.591019
 H         2.144641        1.133701       15.375210
 H         3.509651        5.088052       14.515845
 H         2.157794        5.069527       13.758004
 H         5.199248        2.719962       10.078432
 H         5.661587        1.486874        9.281688
 H         5.155007        2.743656       14.536438
 H         4.264568        1.475951       14.548249
 H         1.326995        3.527139       16.774405
 H         1.778091        4.779837       15.985406
 H         1.251298        3.510544       12.343924
 H         0.361598        4.779607       12.330373
 H         2.121318        5.026110       10.862329
 H         2.123033        5.033037        9.317678
 H         3.519152        1.153661       10.094311
 H         2.611730       14.501419       10.091824
 H         6.022332        1.175071       13.083633
 H         6.031984        1.164381       11.539927
 H         6.000397        1.176565       17.523323
 H         6.018285        1.200601       15.979088
 H         6.042799        5.066106       17.569798
 H         7.391703        5.078987       16.815268
 H         1.737895        1.421934       17.611225
 H         0.405671        1.424557       16.824440
 H         9.132416       10.029181       12.326313
 H         8.268894        8.737329       12.400391
 H        13.451047       12.129959        9.292737
 H        13.445657       12.147454       10.841643
 H        14.258811       13.685643       12.337992
 H        13.823508       12.412896       13.096507
 H        13.439070       12.122287       15.340723
 H        12.098818       12.136202       14.573295
 H        11.326344        8.463850       14.539748
 H         9.996379        8.486270       13.755809
 H        10.415320       13.695942       14.601929
 H         9.955720       12.420856       15.346518
 H        12.023493        8.780700       10.087516
 H        12.922530       10.043833       10.066451
 H        13.459230        8.764321       13.718522
 H        13.018261       10.020981       14.506313
 H         9.060802       10.834857       16.767954
 H         8.163928       12.094407       16.752321
 H         9.594950       12.156446       11.542720
 H         9.607082       12.156671       13.089043
 H        11.312782       12.440562       10.061462
 H        10.417713       13.701365       10.064472
 H        10.369715        7.204968       10.110342
 H         9.928819        8.467628       10.890624
 H        13.836834        8.493673       11.483382
 H        15.178974        8.487723       12.262990
 H        14.250093        7.188192       16.761206
 H        13.811734        8.445255       15.972317
 H        13.839520       12.377848       17.587231
 H        15.184359       12.396278       16.818773
 H         8.179921        8.714683       16.737745
 H         9.526855        8.726183       15.970663
 H         1.762252        8.770997       13.135482
 H         1.342408       10.032264       12.342309
 H         5.105363       11.002330        9.900617
 H         5.648505       12.130402       10.840839
 H         6.543168       13.646430       12.321288
 H         7.449939       12.396155       12.317745
 H         5.187992       10.829879       14.522201
 H         5.667034       12.074461       13.731245
 H         2.115511        8.437118       15.380080
 H         2.567360        7.180297       14.595217
 H         2.187094       12.394462       13.756115
 H         3.532699       12.381006       14.517379
 H         4.076546        8.905267        9.690765
 H         4.256532        8.746552       14.596306
 H         5.590364        8.747787       15.376585
 H         1.805539       12.144466       17.564772
 H         1.799794       12.140688       16.016457
 H         0.427563       12.142698       12.289145
 H         1.759843       12.141550       11.506351
 H         2.165566       12.398376        9.264274
 H         3.500529       12.459320       10.045752
 H         2.520005        7.139118       10.101169
 H         2.089005        8.410968       10.872155
 H         6.621973        7.151905       12.458437
 H         6.155180        8.418177       13.203142
 H         6.051117        8.446531       17.584990
 H         6.473752        7.179906       16.805353
 H         6.477037       13.676630       16.718880
 H         6.028742       12.408960       15.953560
 H         0.374530        8.784701       16.819675
 H         1.279273       10.042262       16.809721
