383
 generated by VMD
 O         9.110611        1.768300       12.265644
 O        12.943208        4.457136        9.976098
 O        14.153234        5.315376       12.239563
 O        12.930538        4.487888       14.555653
 O        10.369934        0.848763       14.541579
 O        10.357086        5.414098       14.515282
 O        12.966394        1.729840       10.052914
 O        12.962667        1.760429       14.577566
 O         9.164855        4.489020       16.802670
 O         9.133262        4.521352       12.237860
 O        10.394763        5.421427        9.984258
 O        10.392193        0.817567       10.036011
 O        14.267672        0.891609       12.319622
 O        14.242105        0.845658       16.817963
 O        14.206736        5.398523       16.816319
 O         9.087369        1.748827       16.796457
 O         9.081306        9.043597        3.371508
 O        12.997221       11.788183        1.095013
 O        14.292710       12.732182        3.305148
 O        12.993011       11.842496        5.549072
 O        10.396044        8.169885        5.602856
 O        10.402441       12.736703        5.558148
 O        12.961949        9.051550        1.082211
 O        12.974852        9.104973        5.543640
 O         9.143874       11.830138        7.810356
 O         9.112144       11.781381        3.345980
 O        10.416317       12.728964        1.136504
 O        10.371633        8.159863        1.128136
 O        14.270954        8.169070        3.311735
 O        14.243753        8.149658        7.775572
 O        14.281330       12.702172        7.818943
 O         9.096712        9.086982        7.825652
 O         1.321077        9.075133        3.350049
 O         5.220578       11.803510        1.123468
 O         6.527975       12.702816        3.360668
 O         5.239629       11.799374        5.600728
 O         2.626825        8.147491        5.547835
 O         2.663162       12.724813        5.618167
 O         5.209255        9.064887        1.090638
 O         5.206360        9.061713        5.550199
 O         1.342249       11.803905        7.840773
 O         1.348398       11.809779        3.382179
 O         2.640403       12.729698        1.149192
 O         2.632698        8.147038        1.148832
 O         6.493120        8.139997        3.326470
 O         6.529670        8.127926        7.767374
 O         6.559658       12.742243        7.807624
 O         1.309514        9.054885        7.737196
 O         1.297267        1.784553        3.379984
 O         5.210617        4.484837        1.119454
 O         6.478138        5.404134        3.338708
 O         5.199223        4.485903        5.571476
 O         2.615165        0.866424        5.595149
 O         2.632985        5.417207        5.586473
 O         5.207025        1.745886        1.108032
 O         5.200061        1.753018        5.584022
 O         1.326519        4.477074        7.790165
 O         1.319127        4.507410        3.367773
 O         2.632941        5.401072        1.165989
 O         2.616808        0.856396        1.159460
 O         6.492266        0.840045        3.353680
 O         6.510017        0.866092        7.816886
 O         6.508129        5.380390        7.806159
 O         1.318946        1.739097        7.837231
 O         9.049655        1.789989        3.347746
 O        12.951579        4.518296        1.115730
 O        14.276882        5.431571        3.339645
 O        12.959280        4.488663        5.546447
 O        10.368564        0.869605        5.552425
 O        10.381193        5.428415        5.546803
 O        12.931006        1.783051        1.095156
 O        12.960899        1.751368        5.567329
 O         9.089122        4.492223        7.761574
 O         9.071655        4.521027        3.322908
 O        10.379175        5.426353        1.103834
 O        10.348065        0.864262        1.120525
 O        14.244611        0.865161        3.320233
 O        14.261027        0.841346        7.814581
 O        14.279956        5.400239        7.767237
 O         9.096550        1.750310        7.809515
 O         1.318034        1.756733       12.336849
 O         5.225974        4.504901       10.056323
 O         6.532390        5.437175       12.254815
 O         5.543168        4.464565       14.491580
 O         2.624303        0.881418       14.586467
 O         1.704828        5.700003       14.490032
 O         5.206487        1.777072       10.028599
 O         5.251993        1.682760       14.571217
 O         1.220185        4.466428       16.928020
 O         1.204662        4.459350       12.218250
 O         2.636574        5.392776       10.025388
 O         2.604321        0.871745       10.088615
 O         6.520391        0.839250       12.257567
 O         6.501785        0.837407       16.817965
 O         6.576731        5.429447       16.924458
 O         1.317946        1.717323       16.843647
 O         9.044144        9.025406       12.325624
 O        12.993859       11.797139       10.076073
 O        14.285344       12.766369       12.306996
 O        12.984786       11.800430       14.539695
 O        10.322315        8.150084       14.587506
 O        10.392776       12.703712       14.551206
 O        12.889948        9.054728       10.002456
 O        12.919744        9.046423       14.551930
 O         9.128202       11.840179       16.828161
 O         9.101102       11.767996       12.308792
 O        10.404149       12.679812       10.078055
 O        10.317770        8.152423       10.070682
 O        14.096426        8.075952       12.245757
 O        14.229472        8.129891       16.800039
 O        14.264653       12.715734       16.792902
 O         9.101312        9.103651       16.839226
 O         1.151381        9.082839       11.910398
 O         5.259354       11.807875       10.024308
 O         6.524833       12.712335       12.293616
 O         5.246503       11.838186       14.564325
 O         2.660199        8.398831       14.645402
 O         2.640998       12.732417       14.638633
 O         5.220945        9.062749        9.989901
 O         5.268193        9.096111       14.553113
 O         1.323711       11.825157       16.870226
 O         1.402588       11.888340       12.310609
 O         2.675452       12.730198       10.059960
 O         2.652499        8.147413        9.911427
 O         6.462276        8.140649       12.284605
 O         6.523618        8.186396       16.815916
 O         6.526224       12.696886       16.826157
 O         1.268741        9.082953       16.913902
 H         9.564581        1.440881       13.048506
 H         9.582701        1.417957       11.503006
 H        13.388411        4.780323       10.769238
 H        13.436480        4.794672        9.221344
 H        14.163321        6.275778       12.257248
 H        15.074554        5.027143       12.215581
 H        12.029554        4.828396       14.527162
 H        13.359694        4.783880       13.745991
 H        10.364635       14.488246       14.557268
 H         9.911050        1.139961       15.336613
 H        10.325816        6.376472       14.526071
 H         9.913553        5.127244       13.709149
 H        13.430270        1.460075       10.853106
 H        12.967138        2.693826       10.044041
 H        12.925401        2.723812       14.573360
 H        12.050871        1.451094       14.560658
 H         9.579462        4.782303       15.984365
 H         9.141284        3.526662       16.776274
 H         9.591293        4.806185       11.440416
 H         9.132924        3.558993       12.229428
 H         9.948444        5.092888        9.196752
 H        11.296964        5.083050        9.953372
 H        11.308256        1.117332       10.043105
 H        10.416000       14.456945       10.048521
 H        13.829116        1.209171       13.116117
 H        15.176495        1.213914       12.353199
 H        13.765672        1.186779       17.581980
 H        13.785338        1.179993       16.037838
 H        13.791682        5.069900       16.012022
 H        15.108031        5.054383       16.829706
 H         8.178618        1.428779       16.816725
 H         9.512151        1.424096       17.597181
 H         9.513586        8.717653        4.168575
 H         8.176930        8.712296        3.381469
 H        13.437623       12.091890        0.293357
 H        12.994699       10.825096        1.064280
 H        13.869840       12.377490        2.514987
 H        15.197247       12.402231        3.312433
 H        13.429103       12.174330        4.756994
 H        12.089065       12.174910        5.532269
 H        11.296380        8.512127        5.599041
 H         9.970685        8.504715        6.400314
 H         9.962768       12.437805        6.361977
 H        10.373115       13.699796        5.568315
 H        13.382022        8.709698        0.284406
 H        12.053546        8.731166        1.078660
 H        13.428450        8.798007        4.751280
 H        12.996020       10.068060        5.521690
 H         9.592512       12.111095        8.615962
 H         9.130171       10.867030        7.828160
 H         9.567080       12.089459        4.137894
 H         9.114903       10.818491        3.376134
 H        11.318861       12.393248        1.148657
 H         9.976190       12.373942        1.916744
 H        10.358639        7.196258        1.131629
 H         9.917261        8.446586        1.927644
 H        13.807381        8.455042        2.516603
 H        14.259404        7.205675        3.309282
 H        13.759299        8.468923        8.543753
 H        13.786903        8.497847        7.002082
 H        13.826386       12.409221        7.022163
 H        14.264807       13.665375        7.801035
 H         9.505295        8.750473        8.631560
 H         8.195518        8.746855        7.814552
 H         1.766583        8.739171        2.563927
 H         0.415519        8.747097        3.320210
 H         4.319093       12.143012        1.143507
 H         5.657876       12.131212        1.916340
 H         7.431592       12.369656        3.373542
 H         6.096662       12.370096        4.155352
 H         5.684571       12.135664        6.386410
 H         4.337308       12.136727        5.626995
 H         2.188500        8.477903        4.755255
 H         3.528601        8.486972        5.534497
 H         2.194651       12.429453        6.406276
 H         2.636764       13.687784        5.624454
 H         5.670492        8.777586        0.293811
 H         5.223354       10.028045        1.087328
 H         5.234675       10.024559        5.552773
 H         5.662308        8.767425        4.753862
 H         0.427057       12.105751        7.833845
 H         1.312260       10.842260        7.804490
 H         1.805709       12.101773        4.177572
 H         1.353020       10.846479        3.392694
 H         2.185982       12.425510        1.942165
 H         2.620941       13.693142        1.171075
 H         2.174163        8.475873        0.368485
 H         3.533756        8.486436        1.107945
 H         6.470575        7.176641        3.309926
 H         6.046994        8.442451        2.527762
 H         6.059559        8.423006        6.980435
 H         6.507325        7.164848        7.763424
 H         6.568123       13.706107        7.806521
 H         7.477873       12.451180        7.804543
 H         1.739715        8.729755        6.937665
 H         0.406563        8.719944        7.733222
 H         1.278566        2.748513        3.375960
 H         0.382061        1.486552        3.353364
 H         5.691009        4.796637        0.341943
 H         5.216351        3.522483        1.086111
 H         7.388366        5.090148        3.315915
 H         6.046094        5.058432        2.548002
 H         4.299261        4.830423        5.558627
 H         5.635803        4.818087        4.779174
 H         2.148516        1.184328        6.376171
 H         2.131002        1.195352        4.829820
 H         2.617445        6.380128        5.605318
 H         2.171279        5.109046        6.374461
 H         5.680971        1.414539        1.877753
 H         5.667927        1.413185        0.329399
 H         4.282096        1.459662        5.586440
 H         5.180394        2.716586        5.572327
 H         1.302865        3.514065        7.807159
 H         0.411445        4.777889        7.787745
 H         1.799191        4.828907        2.595007
 H         1.791281        4.837181        4.140142
 H         3.546885        5.097927        1.132189
 H         2.658044        6.363135        1.150908
 H         2.184095        1.204399        1.946015
 H         3.522192        1.185955        1.161990
 H         6.028329        1.135743        4.144812
 H         6.501235       14.479280        3.379095
 H         6.039093        1.188907        7.040820
 H         6.030417        1.195107        8.586299
 H         6.029818        5.047026        7.039538
 H         6.041863        5.063668        8.588697
 H         0.414671        1.407818        7.854727
 H         1.749223        1.422235        8.639525
 H         9.031876        2.753365        3.333871
 H         8.134641        1.488051        3.350519
 H        13.437519        4.847760        1.878788
 H        13.406860        4.842710        0.329314
 H        15.182178        5.102950        3.368475
 H        13.830740        5.088588        4.121453
 H        12.045666        4.793554        5.544802
 H        12.933670        3.525420        5.549517
 H         9.908909        1.191285        6.335799
 H         9.887978        1.209276        4.789273
 H        10.383797        6.390524        5.590670
 H         9.920132        5.116940        6.333976
 H        12.919901        2.746565        1.102551
 H        12.013206        1.492096        1.105023
 H        13.396384        1.422741        4.773020
 H        12.055495        1.423480        5.541533
 H         9.075253        3.529371        7.781665
 H         8.169966        4.782471        7.781063
 H         9.542041        4.857054        4.093790
 H         9.542850        4.844864        2.546908
 H        11.287756        5.104918        1.100332
 H         9.965989        5.086363        0.301318
 H        10.365153       14.504067        1.155257
 H         9.887765        1.165715        1.910952
 H        13.783554        1.166024        2.529664
 H        14.256186       14.504453        3.287244
 H        13.787856        1.162614        8.590270
 H        13.791750        1.173004        7.042017
 H        14.258217        6.362702        7.751055
 H        13.810528        5.100171        6.981488
 H         8.188634        1.428625        7.837141
 H         9.536803        1.412899        8.597487
 H         1.784998        1.483783       13.133692
 H         1.319125        2.722440       12.324898
 H         4.320194        4.831247       10.077453
 H         5.661651        4.832588       10.853712
 H         7.441541        5.125956       12.234009
 H         6.155919        5.082591       13.079156
 H         5.857438        4.773242       15.339026
 H         5.408721        3.520874       14.561627
 H         2.614669       14.522476       14.622897
 H         2.171859        1.183862       15.381226
 H         1.658059        5.275621       15.345500
 H         4.289889        1.484595       10.057176
 H         5.191397        2.741217       10.048072
 H         5.659560        1.377534       13.756453
 H         4.328863        1.413390       14.546708
 H         1.726868        4.770167       17.685667
 H         1.287018        3.507451       16.909531
 H         1.734394        4.802447       11.494617
 H         1.503170        4.894038       13.031791
 H         2.637908        6.351855        9.970003
 H         2.178087        5.078446        9.239404
 H         2.153536        1.156783       10.891845
 H         2.620589       14.511792       10.101308
 H         6.077970        1.183977       11.475441
 H         7.418672        1.185236       12.245922
 H         6.052296        1.122920       16.011965
 H         6.500379       14.477099       16.803562
 H         7.494121        5.144322       16.893166
 H         6.576835        6.389763       16.882019
 H         1.747673        1.391056       17.640516
 H         0.411039        1.395665       16.857975
 H         9.463778        8.709955       13.133069
 H         8.136308        8.700786       12.332995
 H        13.455717       12.121962        9.295465
 H        13.466727       12.140536       10.841248
 H        14.284219       13.731308       12.314139
 H        15.206197       12.497038       12.311722
 H        13.451283       12.126270       15.317227
 H        13.453300       12.148900       13.774580
 H         9.905795        8.487936       15.387893
 H        11.227094        8.479126       14.590551
 H         9.952128       12.359951       13.766844
 H        11.298893       12.378329       14.525457
 H        12.898314       10.017288       10.032129
 H        11.966708        8.777905       10.011187
 H        12.958214       10.008365       14.525108
 H        13.338872        8.731537       13.746414
 H         9.588529       12.156542       16.043297
 H         9.603201       12.180073       17.593647
 H         8.191972       12.087359       12.305008
 H         9.054912       10.805852       12.311858
 H        11.312661       12.360703       10.103357
 H         9.966008       12.346941       10.869187
 H         9.869246        8.424718       10.879137
 H        10.336891        7.188795       10.065836
 H        13.647470        8.408516       11.458818
 H        14.993391        8.380471       12.173282
 H        13.781564        8.430093       16.002796
 H        14.221622        7.165617       16.775820
 H        14.270087       13.679668       16.801510
 H        15.185179       12.433462       16.817747
 H         9.129941       10.066317       16.856955
 H         9.550212        8.794785       17.633667
 H         1.704783        8.723903       11.193701
 H         2.279982        8.844760       13.906202
 H         5.739275       12.152715        9.263076
 H         5.716533       12.127704       10.809604
 H         6.066128       12.434587       13.093189
 H         6.519254       13.676582       12.293942
 H         5.688631       12.150045       15.361582
 H         4.339538       12.157232       14.610810
 H         2.156089        6.530072       14.597102
 H         3.603225        8.614854       14.626603
 H         2.179999       12.425032       13.854984
 H         2.161222       12.392232       15.401858
 H         5.256259       10.025382        9.982169
 H         5.698030        8.759521        9.210100
 H         5.295840       10.058888       14.525987
 H         5.686688        8.773649       13.746288
 H         1.786543       12.130112       17.658577
 H         1.305208       10.863646       16.915110
 H         1.867352       12.196435       11.521046
 H         1.383464       10.942545       12.245443
 H         3.582707       12.406503       10.020769
 H         2.223522       12.393185        9.278535
 H         3.555618        8.486514        9.914050
 H         2.227992        8.464307        9.104869
 H         6.459734        7.173506       12.267043
 H         6.022283        8.435569       11.482086
 H         6.102623        8.494598       16.007027
 H         7.424040        8.528039       16.805510
 H         6.090227       12.364963       17.617792
 H         7.435556       12.380719       16.848539
 H         0.373304        8.731592       16.853590
 H         1.733834        8.806350       16.120264
383
 generated by VMD
 O         9.110611        1.768300       12.265644
 O        12.943208        4.457136        9.976098
 O        14.153234        5.315376       12.239563
 O        12.930538        4.487888       14.555653
 O        10.369934        0.848763       14.541579
 O        10.357086        5.414098       14.515282
 O        12.966394        1.729840       10.052914
 O        12.962667        1.760429       14.577566
 O         9.164855        4.489020       16.802670
 O         9.133262        4.521352       12.237860
 O        10.394763        5.421427        9.984258
 O        10.392193        0.817567       10.036011
 O        14.267672        0.891609       12.319622
 O        14.242105        0.845658       16.817963
 O        14.206736        5.398523       16.816319
 O         9.087369        1.748827       16.796457
 O         9.081306        9.043597        3.371508
 O        12.997221       11.788183        1.095013
 O        14.292710       12.732182        3.305148
 O        12.993011       11.842496        5.549072
 O        10.396044        8.169885        5.602856
 O        10.402441       12.736703        5.558148
 O        12.961949        9.051550        1.082211
 O        12.974852        9.104973        5.543640
 O         9.143874       11.830138        7.810356
 O         9.112144       11.781381        3.345980
 O        10.416317       12.728964        1.136504
 O        10.371633        8.159863        1.128136
 O        14.270954        8.169070        3.311735
 O        14.243753        8.149658        7.775572
 O        14.281330       12.702172        7.818943
 O         9.096712        9.086982        7.825652
 O         1.321077        9.075133        3.350049
 O         5.220578       11.803510        1.123468
 O         6.527975       12.702816        3.360668
 O         5.239629       11.799374        5.600728
 O         2.626825        8.147491        5.547835
 O         2.663162       12.724813        5.618167
 O         5.209255        9.064887        1.090638
 O         5.206360        9.061713        5.550199
 O         1.342249       11.803905        7.840773
 O         1.348398       11.809779        3.382179
 O         2.640403       12.729698        1.149192
 O         2.632698        8.147038        1.148832
 O         6.493120        8.139997        3.326470
 O         6.529670        8.127926        7.767374
 O         6.559658       12.742243        7.807624
 O         1.309514        9.054885        7.737196
 O         1.297267        1.784553        3.379984
 O         5.210617        4.484837        1.119454
 O         6.478138        5.404134        3.338708
 O         5.199223        4.485903        5.571476
 O         2.615165        0.866424        5.595149
 O         2.632985        5.417207        5.586473
 O         5.207025        1.745886        1.108032
 O         5.200061        1.753018        5.584022
 O         1.326519        4.477074        7.790165
 O         1.319127        4.507410        3.367773
 O         2.632941        5.401072        1.165989
 O         2.616808        0.856396        1.159460
 O         6.492266        0.840045        3.353680
 O         6.510017        0.866092        7.816886
 O         6.508129        5.380390        7.806159
 O         1.318946        1.739097        7.837231
 O         9.049655        1.789989        3.347746
 O        12.951579        4.518296        1.115730
 O        14.276882        5.431571        3.339645
 O        12.959280        4.488663        5.546447
 O        10.368564        0.869605        5.552425
 O        10.381193        5.428415        5.546803
 O        12.931006        1.783051        1.095156
 O        12.960899        1.751368        5.567329
 O         9.089122        4.492223        7.761574
 O         9.071655        4.521027        3.322908
 O        10.379175        5.426353        1.103834
 O        10.348065        0.864262        1.120525
 O        14.244611        0.865161        3.320233
 O        14.261027        0.841346        7.814581
 O        14.279956        5.400239        7.767237
 O         9.096550        1.750310        7.809515
 O         1.318034        1.756733       12.336849
 O         5.225974        4.504901       10.056323
 O         6.532390        5.437175       12.254815
 O         5.543168        4.464565       14.491580
 O         2.624303        0.881418       14.586467
 O         1.704828        5.700003       14.490032
 O         5.206487        1.777072       10.028599
 O         5.251993        1.682760       14.571217
 O         1.220185        4.466428       16.928020
 O         1.204662        4.459350       12.218250
 O         2.636574        5.392776       10.025388
 O         2.604321        0.871745       10.088615
 O         6.520391        0.839250       12.257567
 O         6.501785        0.837407       16.817965
 O         6.576731        5.429447       16.924458
 O         1.317946        1.717323       16.843647
 O         9.044144        9.025406       12.325624
 O        12.993859       11.797139       10.076073
 O        14.285344       12.766369       12.306996
 O        12.984786       11.800430       14.539695
 O        10.322315        8.150084       14.587506
 O        10.392776       12.703712       14.551206
 O        12.889948        9.054728       10.002456
 O        12.919744        9.046423       14.551930
 O         9.128202       11.840179       16.828161
 O         9.101102       11.767996       12.308792
 O        10.404149       12.679812       10.078055
 O        10.317770        8.152423       10.070682
 O        14.096426        8.075952       12.245757
 O        14.229472        8.129891       16.800039
 O        14.264653       12.715734       16.792902
 O         9.101312        9.103651       16.839226
 O         1.151381        9.082839       11.910398
 O         5.259354       11.807875       10.024308
 O         6.524833       12.712335       12.293616
 O         5.246503       11.838186       14.564325
 O         2.660199        8.398831       14.645402
 O         2.640998       12.732417       14.638633
 O         5.220945        9.062749        9.989901
 O         5.268193        9.096111       14.553113
 O         1.323711       11.825157       16.870226
 O         1.402588       11.888340       12.310609
 O         2.675452       12.730198       10.059960
 O         2.652499        8.147413        9.911427
 O         6.462276        8.140649       12.284605
 O         6.523618        8.186396       16.815916
 O         6.526224       12.696886       16.826157
 O         1.268741        9.082953       16.913902
 H         9.564581        1.440881       13.048506
 H         9.582701        1.417957       11.503006
 H        13.388411        4.780323       10.769238
 H        13.436480        4.794672        9.221344
 H        14.163321        6.275778       12.257248
 H        15.074554        5.027143       12.215581
 H        12.029554        4.828396       14.527162
 H        13.359694        4.783880       13.745991
 H        10.364635       14.488246       14.557268
 H         9.911050        1.139961       15.336613
 H        10.325816        6.376472       14.526071
 H         9.913553        5.127244       13.709149
 H        13.430270        1.460075       10.853106
 H        12.967138        2.693826       10.044041
 H        12.925401        2.723812       14.573360
 H        12.050871        1.451094       14.560658
 H         9.579462        4.782303       15.984365
 H         9.141284        3.526662       16.776274
 H         9.591293        4.806185       11.440416
 H         9.132924        3.558993       12.229428
 H         9.948444        5.092888        9.196752
 H        11.296964        5.083050        9.953372
 H        11.308256        1.117332       10.043105
 H        10.416000       14.456945       10.048521
 H        13.829116        1.209171       13.116117
 H        15.176495        1.213914       12.353199
 H        13.765672        1.186779       17.581980
 H        13.785338        1.179993       16.037838
 H        13.791682        5.069900       16.012022
 H        15.108031        5.054383       16.829706
 H         8.178618        1.428779       16.816725
 H         9.512151        1.424096       17.597181
 H         9.513586        8.717653        4.168575
 H         8.176930        8.712296        3.381469
 H        13.437623       12.091890        0.293357
 H        12.994699       10.825096        1.064280
 H        13.869840       12.377490        2.514987
 H        15.197247       12.402231        3.312433
 H        13.429103       12.174330        4.756994
 H        12.089065       12.174910        5.532269
 H        11.296380        8.512127        5.599041
 H         9.970685        8.504715        6.400314
 H         9.962768       12.437805        6.361977
 H        10.373115       13.699796        5.568315
 H        13.382022        8.709698        0.284406
 H        12.053546        8.731166        1.078660
 H        13.428450        8.798007        4.751280
 H        12.996020       10.068060        5.521690
 H         9.592512       12.111095        8.615962
 H         9.130171       10.867030        7.828160
 H         9.567080       12.089459        4.137894
 H         9.114903       10.818491        3.376134
 H        11.318861       12.393248        1.148657
 H         9.976190       12.373942        1.916744
 H        10.358639        7.196258        1.131629
 H         9.917261        8.446586        1.927644
 H        13.807381        8.455042        2.516603
 H        14.259404        7.205675        3.309282
 H        13.759299        8.468923        8.543753
 H        13.786903        8.497847        7.002082
 H        13.826386       12.409221        7.022163
 H        14.264807       13.665375        7.801035
 H         9.505295        8.750473        8.631560
 H         8.195518        8.746855        7.814552
 H         1.766583        8.739171        2.563927
 H         0.415519        8.747097        3.320210
 H         4.319093       12.143012        1.143507
 H         5.657876       12.131212        1.916340
 H         7.431592       12.369656        3.373542
 H         6.096662       12.370096        4.155352
 H         5.684571       12.135664        6.386410
 H         4.337308       12.136727        5.626995
 H         2.188500        8.477903        4.755255
 H         3.528601        8.486972        5.534497
 H         2.194651       12.429453        6.406276
 H         2.636764       13.687784        5.624454
 H         5.670492        8.777586        0.293811
 H         5.223354       10.028045        1.087328
 H         5.234675       10.024559        5.552773
 H         5.662308        8.767425        4.753862
 H         0.427057       12.105751        7.833845
 H         1.312260       10.842260        7.804490
 H         1.805709       12.101773        4.177572
 H         1.353020       10.846479        3.392694
 H         2.185982       12.425510        1.942165
 H         2.620941       13.693142        1.171075
 H         2.174163        8.475873        0.368485
 H         3.533756        8.486436        1.107945
 H         6.470575        7.176641        3.309926
 H         6.046994        8.442451        2.527762
 H         6.059559        8.423006        6.980435
 H         6.507325        7.164848        7.763424
 H         6.568123       13.706107        7.806521
 H         7.477873       12.451180        7.804543
 H         1.739715        8.729755        6.937665
 H         0.406563        8.719944        7.733222
 H         1.278566        2.748513        3.375960
 H         0.382061        1.486552        3.353364
 H         5.691009        4.796637        0.341943
 H         5.216351        3.522483        1.086111
 H         7.388366        5.090148        3.315915
 H         6.046094        5.058432        2.548002
 H         4.299261        4.830423        5.558627
 H         5.635803        4.818087        4.779174
 H         2.148516        1.184328        6.376171
 H         2.131002        1.195352        4.829820
 H         2.617445        6.380128        5.605318
 H         2.171279        5.109046        6.374461
 H         5.680971        1.414539        1.877753
 H         5.667927        1.413185        0.329399
 H         4.282096        1.459662        5.586440
 H         5.180394        2.716586        5.572327
 H         1.302865        3.514065        7.807159
 H         0.411445        4.777889        7.787745
 H         1.799191        4.828907        2.595007
 H         1.791281        4.837181        4.140142
 H         3.546885        5.097927        1.132189
 H         2.658044        6.363135        1.150908
 H         2.184095        1.204399        1.946015
 H         3.522192        1.185955        1.161990
 H         6.028329        1.135743        4.144812
 H         6.501235       14.479280        3.379095
 H         6.039093        1.188907        7.040820
 H         6.030417        1.195107        8.586299
 H         6.029818        5.047026        7.039538
 H         6.041863        5.063668        8.588697
 H         0.414671        1.407818        7.854727
 H         1.749223        1.422235        8.639525
 H         9.031876        2.753365        3.333871
 H         8.134641        1.488051        3.350519
 H        13.437519        4.847760        1.878788
 H        13.406860        4.842710        0.329314
 H        15.182178        5.102950        3.368475
 H        13.830740        5.088588        4.121453
 H        12.045666        4.793554        5.544802
 H        12.933670        3.525420        5.549517
 H         9.908909        1.191285        6.335799
 H         9.887978        1.209276        4.789273
 H        10.383797        6.390524        5.590670
 H         9.920132        5.116940        6.333976
 H        12.919901        2.746565        1.102551
 H        12.013206        1.492096        1.105023
 H        13.396384        1.422741        4.773020
 H        12.055495        1.423480        5.541533
 H         9.075253        3.529371        7.781665
 H         8.169966        4.782471        7.781063
 H         9.542041        4.857054        4.093790
 H         9.542850        4.844864        2.546908
 H        11.287756        5.104918        1.100332
 H         9.965989        5.086363        0.301318
 H        10.365153       14.504067        1.155257
 H         9.887765        1.165715        1.910952
 H        13.783554        1.166024        2.529664
 H        14.256186       14.504453        3.287244
 H        13.787856        1.162614        8.590270
 H        13.791750        1.173004        7.042017
 H        14.258217        6.362702        7.751055
 H        13.810528        5.100171        6.981488
 H         8.188634        1.428625        7.837141
 H         9.536803        1.412899        8.597487
 H         1.784998        1.483783       13.133692
 H         1.319125        2.722440       12.324898
 H         4.320194        4.831247       10.077453
 H         5.661651        4.832588       10.853712
 H         7.441541        5.125956       12.234009
 H         6.155919        5.082591       13.079156
 H         5.857438        4.773242       15.339026
 H         5.408721        3.520874       14.561627
 H         2.614669       14.522476       14.622897
 H         2.171859        1.183862       15.381226
 H         1.658059        5.275621       15.345500
 H         4.289889        1.484595       10.057176
 H         5.191397        2.741217       10.048072
 H         5.659560        1.377534       13.756453
 H         4.328863        1.413390       14.546708
 H         1.726868        4.770167       17.685667
 H         1.287018        3.507451       16.909531
 H         1.734394        4.802447       11.494617
 H         1.503170        4.894038       13.031791
 H         2.637908        6.351855        9.970003
 H         2.178087        5.078446        9.239404
 H         2.153536        1.156783       10.891845
 H         2.620589       14.511792       10.101308
 H         6.077970        1.183977       11.475441
 H         7.418672        1.185236       12.245922
 H         6.052296        1.122920       16.011965
 H         6.500379       14.477099       16.803562
 H         7.494121        5.144322       16.893166
 H         6.576835        6.389763       16.882019
 H         1.747673        1.391056       17.640516
 H         0.411039        1.395665       16.857975
 H         9.463778        8.709955       13.133069
 H         8.136308        8.700786       12.332995
 H        13.455717       12.121962        9.295465
 H        13.466727       12.140536       10.841248
 H        14.284219       13.731308       12.314139
 H        15.206197       12.497038       12.311722
 H        13.451283       12.126270       15.317227
 H        13.453300       12.148900       13.774580
 H         9.905795        8.487936       15.387893
 H        11.227094        8.479126       14.590551
 H         9.952128       12.359951       13.766844
 H        11.298893       12.378329       14.525457
 H        12.898314       10.017288       10.032129
 H        11.966708        8.777905       10.011187
 H        12.958214       10.008365       14.525108
 H        13.338872        8.731537       13.746414
 H         9.588529       12.156542       16.043297
 H         9.603201       12.180073       17.593647
 H         8.191972       12.087359       12.305008
 H         9.054912       10.805852       12.311858
 H        11.312661       12.360703       10.103357
 H         9.966008       12.346941       10.869187
 H         9.869246        8.424718       10.879137
 H        10.336891        7.188795       10.065836
 H        13.647470        8.408516       11.458818
 H        14.993391        8.380471       12.173282
 H        13.781564        8.430093       16.002796
 H        14.221622        7.165617       16.775820
 H        14.270087       13.679668       16.801510
 H        15.185179       12.433462       16.817747
 H         9.129941       10.066317       16.856955
 H         9.550212        8.794785       17.633667
 H         1.704783        8.723903       11.193701
 H         2.279982        8.844760       13.906202
 H         5.739275       12.152715        9.263076
 H         5.716533       12.127704       10.809604
 H         6.066128       12.434587       13.093189
 H         6.519254       13.676582       12.293942
 H         5.688631       12.150045       15.361582
 H         4.339538       12.157232       14.610810
 H         2.156089        6.530072       14.597102
 H         3.603225        8.614854       14.626603
 H         2.179999       12.425032       13.854984
 H         2.161222       12.392232       15.401858
 H         5.256259       10.025382        9.982169
 H         5.698030        8.759521        9.210100
 H         5.295840       10.058888       14.525987
 H         5.686688        8.773649       13.746288
 H         1.786543       12.130112       17.658577
 H         1.305208       10.863646       16.915110
 H         1.867352       12.196435       11.521046
 H         1.383464       10.942545       12.245443
 H         3.582707       12.406503       10.020769
 H         2.223522       12.393185        9.278535
 H         3.555618        8.486514        9.914050
 H         2.227992        8.464307        9.104869
 H         6.459734        7.173506       12.267043
 H         6.022283        8.435569       11.482086
 H         6.102623        8.494598       16.007027
 H         7.424040        8.528039       16.805510
 H         6.090227       12.364963       17.617792
 H         7.435556       12.380719       16.848539
 H         0.373304        8.731592       16.853590
 H         1.733834        8.806350       16.120264
