383
 generated by VMD
 O         9.089919        1.763673       12.324366
 O        12.985981        4.477568       10.077106
 O        14.266237        5.379058       12.329084
 O        12.962103        4.507467       14.568332
 O        10.389186        0.826546       14.544494
 O        10.398249        5.448932       14.575709
 O        12.920632        1.727799       10.109198
 O        12.952769        1.769903       14.506401
 O         9.084877        4.516378       16.792603
 O         9.133187        4.499723       12.327641
 O        10.400026        5.405841       10.072740
 O        10.346023        0.835502       10.081271
 O        14.272414        0.838343       12.327436
 O        14.233881        0.864866       16.699989
 O        14.261124        5.434098       16.790771
 O         9.072006        1.777686       16.762772
 O         9.087306        9.031169        3.314774
 O        12.946583       11.790808        1.054956
 O        14.259446       12.555243        3.298928
 O        12.943166       11.772141        5.593091
 O        10.363011        8.136556        5.571308
 O        10.350234       12.688538        5.589283
 O        12.963013        9.065805        1.037885
 O        12.946897        9.028132        5.567050
 O         9.067147       11.784720        7.859643
 O         9.089533       11.771447        3.324727
 O        10.361267       12.729167        1.087942
 O        10.387582        8.136769        1.080984
 O        14.243510        8.168027        3.296230
 O        14.261614        8.193550        7.819803
 O        14.258862       12.656897        7.809335
 O         9.113861        9.045351        7.829921
 O         1.314830        9.048105        3.314185
 O         5.229393       11.820001        1.101226
 O         6.521530       12.705878        3.344733
 O         5.220782       11.837318        5.594243
 O         2.629180        8.196697        5.569675
 O         2.627279       12.687397        5.595407
 O         5.179695        9.078279        1.075009
 O         5.219782        9.099423        5.562741
 O         1.332156       11.808969        7.849407
 O         1.365339       11.767202        3.325589
 O         2.638744       12.752466        1.108736
 O         2.596788        8.157744        1.068099
 O         6.482107        8.167775        3.313591
 O         6.519197        8.164463        7.803783
 O         6.502409       12.718291        7.845129
 O         1.331221        9.072734        7.825528
 O         1.407319        1.834802        3.225082
 O         5.210466        4.487841        1.071369
 O         6.511644        5.422334        3.299442
 O         5.239047        4.506352        5.549710
 O         2.556174        0.776914        5.526267
 O         2.668598        5.464157        5.570584
 O         5.229142        1.752119        1.067911
 O         5.191679        1.748158        5.545613
 O         1.420094        4.624189        7.876675
 O         1.336277        4.582912        3.324924
 O         2.629397        5.428071        1.053780
 O         2.657688        0.874336        1.031005
 O         6.477664        0.839226        3.320952
 O         6.442235        0.854128        7.836626
 O         6.491754        5.420423        7.819760
 O         1.243839        1.867859        8.290972
 O         9.024512        1.788366        3.335569
 O        12.975724        4.514848        1.069979
 O        14.257158        5.421677        3.327305
 O        12.947326        4.613816        5.601102
 O        10.218579        0.853201        5.586758
 O        10.361090        5.418654        5.597547
 O        12.892828        1.825399        0.909992
 O        12.649775        1.839550        5.768607
 O         9.083419        4.488369        7.853007
 O         9.091799        4.544687        3.335406
 O        10.406506        5.414428        1.082503
 O        10.310772        0.860662        1.092915
 O        14.612096        0.553243        2.393428
 O        14.181002        0.780956        7.895881
 O        14.303593        5.468097        7.863094
 O         9.030491        1.752431        7.858907
 O         1.338036        1.779401       12.432168
 O         5.245653        4.522163       10.084146
 O         6.536211        5.384979       12.337194
 O         5.205952        4.493633       14.555904
 O         2.662135        0.840839       14.611341
 O         2.638511        5.465590       14.578403
 O         5.250253        1.778683       10.125504
 O         5.234659        1.751421       14.577497
 O         1.310898        4.518088       16.774387
 O         1.342584        4.530122       12.355707
 O         2.663961        5.473614       10.139695
 O         2.688895        0.827812       10.288220
 O         6.516889        0.834128       12.347883
 O         6.516018        0.826295       16.801178
 O         6.493495        5.412363       16.789610
 O         1.298390        1.775531       16.782209
 O         9.086814        9.062630       12.315305
 O        12.983931       11.794271       10.072915
 O        14.263316       12.705334       12.318087
 O        12.992605       11.796728       14.560516
 O        10.377325        8.189340       14.562658
 O        10.405066       12.688526       14.540570
 O        12.992232        9.056274       10.086374
 O        12.969263        9.065712       14.527307
 O         9.094046       11.795009       16.769260
 O         9.097089       11.792460       12.304212
 O        10.398694       12.701435       10.084530
 O        10.406428        8.147406       10.079367
 O        14.285151        8.112093       12.316072
 O        14.280595        8.170525       16.753321
 O        14.268950       12.729781       16.793816
 O         9.076980        9.065191       16.810625
 O         1.319291        9.042972       12.330827
 O         5.203727       11.765600       10.073371
 O         6.507620       12.693211       12.300470
 O         5.227687       11.807146       14.555033
 O         2.638800        8.196526       14.568496
 O         2.635775       12.704917       14.585507
 O         5.232402        9.032422       10.064740
 O         5.224619        9.064705       14.566552
 O         1.320290       11.835919       16.831282
 O         1.309610       11.775681       12.385018
 O         2.606789       12.673963       10.137472
 O         2.626690        8.196445       10.080283
 O         6.508551        8.127370       12.326627
 O         6.499568        8.147515       16.805420
 O         6.520727       12.694722       16.798895
 O         1.325069        9.105775       16.781223
 H         9.076692        2.726837       12.331776
 H         8.173971        1.465843       12.338629
 H        12.942748        3.515682       10.078639
 H        12.075242        4.791286       10.066829
 H        13.805097        5.046573       11.551181
 H        13.788812        5.049811       13.098647
 H        12.062346        4.850994       14.594040
 H        13.405803        4.839657       15.356672
 H        11.290117        1.168996       14.523076
 H         9.951946        1.158154       13.752827
 H        10.379012        6.411679       14.592833
 H         9.926722        5.145158       15.358958
 H        12.012781        1.403829       10.130219
 H        13.362893        1.401447       10.899831
 H        13.421758        1.461510       15.292846
 H        12.961040        2.732355       14.543105
 H         8.168741        4.813622       16.793636
 H         9.060620        3.553321       16.774414
 H         9.596420        4.841203       13.099616
 H         9.599867        4.827220       11.550795
 H        10.393064        6.368529       10.050728
 H         9.930920        5.104145        9.286784
 H         9.877696        1.164010        9.305084
 H         9.877701        1.171751       10.853041
 H        13.821086        1.179976       13.109096
 H        15.172697        1.175023       12.365681
 H        15.137818        1.188451       16.766035
 H        13.755031        1.214378       17.462217
 H        13.812362        5.134478       17.590322
 H        14.254202        6.396849       16.806105
 H         8.174395        1.428166       16.745861
 H         9.520782        1.436328       15.982217
 H         8.176517        8.720046        3.285121
 H         9.527253        8.695413        2.526177
 H        12.051111       12.141606        1.090383
 H        13.392047       12.070333        1.864566
 H        15.166118       12.241984        3.348854
 H        13.822342       12.307102        4.118019
 H        12.906352       10.810228        5.584797
 H        12.032557       12.085366        5.589148
 H        10.339932        7.172270        5.564765
 H         9.903924        8.431416        4.777857
 H         9.881029       12.362926        6.363068
 H         9.888432       12.352121        4.815215
 H        12.957137       10.030081        1.020176
 H        13.427805        8.776693        0.245722
 H        12.044396        8.691712        5.545454
 H        13.379811        8.718085        4.764899
 H         9.096971       10.822238        7.873669
 H         9.546218       12.088901        8.637598
 H         9.546356       12.087642        2.537810
 H         9.110378       10.809176        3.294327
 H        10.332227       13.692751        1.077871
 H         9.912685       12.430228        0.291055
 H        10.423449        7.173164        1.076879
 H        11.299631        8.447960        1.066419
 H        13.819599        8.499002        2.497688
 H        15.147888        8.498379        3.289225
 H        14.258137        7.230088        7.817452
 H        13.796934        8.471644        7.022652
 H        13.794214       12.357615        7.018620
 H        14.209539       13.618098        7.808814
 H         9.584887        8.713759        8.601501
 H         9.580014        8.720256        7.051792
 H         1.348709       10.011652        3.323377
 H         1.770576        8.754887        4.110339
 H         5.213982       10.857304        1.075066
 H         5.688364       12.107881        0.304633
 H         7.421485       12.361664        3.320337
 H         6.081824       12.379306        2.551926
 H         5.692944       12.161200        6.369463
 H         5.691154       12.162905        4.818819
 H         2.642414        7.233605        5.587733
 H         2.166371        8.481339        6.364943
 H         2.194682       12.356035        6.390567
 H         3.540732       12.378543        5.620967
 H         5.621071        8.737813        0.289491
 H         4.275236        8.747571        1.051388
 H         5.200418       10.062466        5.572862
 H         4.302680        8.804416        5.571811
 H         0.421215       12.124897        7.853449
 H         1.744913       12.129418        8.658101
 H         1.818487       12.101509        4.104841
 H         1.817150       12.137948        2.559771
 H         3.554306       12.456265        1.099506
 H         2.654790       13.716524        1.087419
 H         2.596967        7.194173        1.074981
 H         2.142591        8.442408        1.869141
 H         6.026999        8.506862        4.092204
 H         6.004755        8.500243        2.546200
 H         7.427507        8.484707        7.785484
 H         6.083047        8.509919        7.017870
 H         7.406507       12.384804        7.875455
 H         6.055955       12.375892        8.626582
 H         1.312872       10.035917        7.835038
 H         0.412698        8.782217        7.821980
 H         1.376853        2.793604        3.298178
 H         1.808936        1.499668        4.026285
 H         5.228849        3.524808        1.100056
 H         5.667228        4.798349        1.860726
 H         6.513891        6.385279        3.306849
 H         7.434412        5.142851        3.309504
 H         5.236265        3.544458        5.525671
 H         5.692773        4.803811        4.753372
 H         2.012200        1.051980        6.246083
 H         2.568838       14.409725        5.554192
 H         2.247792        5.152135        6.376574
 H         3.568736        5.120517        5.579450
 H         4.316310        1.439288        1.068650
 H         5.644078        1.411407        1.868116
 H         4.290555        1.424373        5.520635
 H         5.630409        1.409801        4.755377
 H         1.417227        3.677206        7.952618
 H         1.866223        4.944368        8.671258
 H         1.807576        4.896573        2.546400
 H         1.813091        4.909334        4.093934
 H         2.181243        5.090164        0.270766
 H         3.527266        5.081072        1.037684
 H         2.201467        1.229795        1.803244
 H         2.167148        1.187264        0.262755
 H         7.385684        1.166937        3.324852
 H         6.528833       14.479227        3.325749
 H         5.999725        1.141252        7.031968
 H         6.450348       14.492727        7.822644
 H         6.491817        6.383097        7.789278
 H         6.053730        5.117991        7.017341
 H        -0.466956        1.113104        7.952968
 H         1.770518        1.491540        9.018206
 H         9.468672        1.473075        4.133771
 H         9.058964        2.749494        3.360056
 H        12.964251        3.547862        1.060680
 H        13.424495        4.786857        1.877076
 H        15.175988        5.134359        3.327838
 H        14.272307        6.384009        3.307136
 H        13.446426        4.927797        6.358746
 H        13.426578        4.890444        4.813573
 H        11.126373        1.197845        5.638522
 H        10.287628       14.497193        5.576474
 H        11.279071        5.120694        5.621447
 H         9.932424        5.072110        6.386728
 H        13.455519        1.370684        1.559424
 H        12.001811        1.482421        1.014231
 H        12.793509        2.782536        5.700825
 H         9.050288        3.524837        7.854383
 H         8.171140        4.794931        7.841241
 H         9.580939        4.855494        2.566744
 H         9.560207        4.859262        4.116463
 H         9.962159        5.081851        0.295833
 H        11.310548        5.078272        1.058875
 H         9.853589        1.202260        1.868360
 H         9.850113        1.199319        0.319156
 H        15.359280        0.985228        2.800096
 H        14.468443       14.319890        2.833092
 H        13.223054        1.512276        6.456459
 H        13.725883        1.105715        8.682644
 H        13.865485        5.104657        8.639862
 H        15.214019        5.164534        7.887863
 H         8.122185        1.434156        7.846392
 H         9.442171        1.419359        7.050683
 H         1.351413        2.742617       12.436795
 H         1.790574        1.483430       13.230435
 H         5.660267        4.852571        9.279062
 H         4.345752        4.864561       10.091012
 H         7.445245        5.067268       12.313942
 H         6.108553        5.071251       11.532564
 H         5.219165        3.530354       14.545658
 H         5.679193        4.782435       13.767651
 H         2.671621       14.479529       14.598377
 H         3.580992        1.131631       14.601795
 H         2.674619        6.428469       14.581066
 H         3.547285        5.147186       14.568051
 H         5.663835        1.471501        9.310919
 H         5.258349        2.741839       10.094195
 H         5.699073        1.414609       13.803128
 H         5.706257        1.421339       15.350531
 H         1.750107        4.867786       15.991947
 H         0.406075        4.848831       16.761070
 H         0.429501        4.837034       12.368210
 H         1.769463        4.883037       13.143840
 H         2.643404        6.437371       10.155773
 H         2.194281        5.168130       10.923657
 H         2.269129        1.161386       11.091660
 H         3.590684        1.168047       10.268754
 H         6.072718        1.149700       11.552958
 H         6.504889       14.473783       12.307922
 H         6.503946       14.465487       16.826685
 H         6.061049        1.133255       17.594259
 H         6.026958        5.077598       16.016020
 H         6.025373        5.078816       17.563427
 H         1.311736        2.737682       16.753754
 H         1.777125        1.467663       16.005589
 H         9.060167       10.025882       12.303457
 H         8.173784        8.755971       12.312583
 H        12.993385       10.830949       10.072733
 H        13.437404       12.071712        9.269031
 H        14.257914       13.668683       12.300306
 H        13.811850       12.408959       11.520071
 H        13.460840       12.130366       15.334339
 H        13.457069       12.128943       13.784328
 H         9.901773        8.507113       13.786991
 H         9.902463        8.512249       15.335741
 H        10.421660       13.652033       14.544327
 H        11.323543       12.397169       14.547407
 H        13.471588        8.712687       10.847535
 H        13.451542        8.742218        9.299413
 H        12.957948       10.029341       14.535213
 H        12.050038        8.777990       14.541838
 H         9.563460       12.082565       15.978727
 H         9.104239       10.831783       16.768726
 H         9.570001       12.115911       13.078636
 H         9.573019       12.122643       11.533349
 H        11.317375       12.411561       10.073361
 H        10.405614       13.664863       10.079055
 H        11.311564        8.476295       10.107402
 H         9.962976        8.478197       10.867211
 H        14.259651        7.149057       12.342957
 H        13.814789        8.426090       13.095706
 H        15.182609        8.507403       16.737289
 H        13.843815        8.491257       15.956861
 H        14.246802       13.693309       16.800882
 H        13.801759       12.435008       17.583557
 H         9.521255        8.728374       17.596636
 H         8.173434        8.731742       16.833429
 H         0.422477        8.691106       12.303698
 H         1.762860        8.743799       11.529738
 H         4.285959       12.055846       10.093787
 H         5.191222       10.802217       10.068666
 H         6.071487       12.352034       11.512043
 H         7.414864       12.370012       12.280396
 H         5.652802       12.133006       13.754301
 H         4.321705       12.134504       14.545597
 H         2.161001        8.500162       13.788581
 H         2.164266        8.533464       15.336874
 H         2.168144       12.390241       15.366761
 H         2.152943       12.368095       13.822423
 H         5.704401        8.710275        9.289166
 H         5.693096        8.694534       10.839812
 H         5.216074       10.028038       14.559126
 H         4.302222        8.784778       14.565120
 H         0.415503       12.167931       16.849186
 H         1.758568       12.172946       17.620235
 H         0.395920       12.079804       12.358081
 H         1.283929       10.812485       12.369260
 H         2.152656       12.363015       10.928401
 H         2.635696       13.632586       10.203884
 H         2.192406        8.512500        9.280467
 H         3.538463        8.506148       10.049827
 H         6.048957        8.432947       13.115750
 H         6.509152        7.164621       12.357529
 H         6.486652        7.184425       16.777870
 H         6.049602        8.454141       16.010221
 H         6.083343       12.375794       16.002106
 H         7.427299       12.368378       16.768673
 H         1.336156       10.068540       16.824787
 H         1.768737        8.786740       17.574909
383
 generated by VMD
 O         9.089919        1.763673       12.324366
 O        12.985981        4.477568       10.077106
 O        14.266237        5.379058       12.329084
 O        12.962103        4.507467       14.568332
 O        10.389186        0.826546       14.544494
 O        10.398249        5.448932       14.575709
 O        12.920632        1.727799       10.109198
 O        12.952769        1.769903       14.506401
 O         9.084877        4.516378       16.792603
 O         9.133187        4.499723       12.327641
 O        10.400026        5.405841       10.072740
 O        10.346023        0.835502       10.081271
 O        14.272414        0.838343       12.327436
 O        14.233881        0.864866       16.699989
 O        14.261124        5.434098       16.790771
 O         9.072006        1.777686       16.762772
 O         9.087306        9.031169        3.314774
 O        12.946583       11.790808        1.054956
 O        14.259446       12.555243        3.298928
 O        12.943166       11.772141        5.593091
 O        10.363011        8.136556        5.571308
 O        10.350234       12.688538        5.589283
 O        12.963013        9.065805        1.037885
 O        12.946897        9.028132        5.567050
 O         9.067147       11.784720        7.859643
 O         9.089533       11.771447        3.324727
 O        10.361267       12.729167        1.087942
 O        10.387582        8.136769        1.080984
 O        14.243510        8.168027        3.296230
 O        14.261614        8.193550        7.819803
 O        14.258862       12.656897        7.809335
 O         9.113861        9.045351        7.829921
 O         1.314830        9.048105        3.314185
 O         5.229393       11.820001        1.101226
 O         6.521530       12.705878        3.344733
 O         5.220782       11.837318        5.594243
 O         2.629180        8.196697        5.569675
 O         2.627279       12.687397        5.595407
 O         5.179695        9.078279        1.075009
 O         5.219782        9.099423        5.562741
 O         1.332156       11.808969        7.849407
 O         1.365339       11.767202        3.325589
 O         2.638744       12.752466        1.108736
 O         2.596788        8.157744        1.068099
 O         6.482107        8.167775        3.313591
 O         6.519197        8.164463        7.803783
 O         6.502409       12.718291        7.845129
 O         1.331221        9.072734        7.825528
 O         1.407319        1.834802        3.225082
 O         5.210466        4.487841        1.071369
 O         6.511644        5.422334        3.299442
 O         5.239047        4.506352        5.549710
 O         2.556174        0.776914        5.526267
 O         2.668598        5.464157        5.570584
 O         5.229142        1.752119        1.067911
 O         5.191679        1.748158        5.545613
 O         1.420094        4.624189        7.876675
 O         1.336277        4.582912        3.324924
 O         2.629397        5.428071        1.053780
 O         2.657688        0.874336        1.031005
 O         6.477664        0.839226        3.320952
 O         6.442235        0.854128        7.836626
 O         6.491754        5.420423        7.819760
 O         1.243839        1.867859        8.290972
 O         9.024512        1.788366        3.335569
 O        12.975724        4.514848        1.069979
 O        14.257158        5.421677        3.327305
 O        12.947326        4.613816        5.601102
 O        10.218579        0.853201        5.586758
 O        10.361090        5.418654        5.597547
 O        12.892828        1.825399        0.909992
 O        12.649775        1.839550        5.768607
 O         9.083419        4.488369        7.853007
 O         9.091799        4.544687        3.335406
 O        10.406506        5.414428        1.082503
 O        10.310772        0.860662        1.092915
 O        14.612096        0.553243        2.393428
 O        14.181002        0.780956        7.895881
 O        14.303593        5.468097        7.863094
 O         9.030491        1.752431        7.858907
 O         1.338036        1.779401       12.432168
 O         5.245653        4.522163       10.084146
 O         6.536211        5.384979       12.337194
 O         5.205952        4.493633       14.555904
 O         2.662135        0.840839       14.611341
 O         2.638511        5.465590       14.578403
 O         5.250253        1.778683       10.125504
 O         5.234659        1.751421       14.577497
 O         1.310898        4.518088       16.774387
 O         1.342584        4.530122       12.355707
 O         2.663961        5.473614       10.139695
 O         2.688895        0.827812       10.288220
 O         6.516889        0.834128       12.347883
 O         6.516018        0.826295       16.801178
 O         6.493495        5.412363       16.789610
 O         1.298390        1.775531       16.782209
 O         9.086814        9.062630       12.315305
 O        12.983931       11.794271       10.072915
 O        14.263316       12.705334       12.318087
 O        12.992605       11.796728       14.560516
 O        10.377325        8.189340       14.562658
 O        10.405066       12.688526       14.540570
 O        12.992232        9.056274       10.086374
 O        12.969263        9.065712       14.527307
 O         9.094046       11.795009       16.769260
 O         9.097089       11.792460       12.304212
 O        10.398694       12.701435       10.084530
 O        10.406428        8.147406       10.079367
 O        14.285151        8.112093       12.316072
 O        14.280595        8.170525       16.753321
 O        14.268950       12.729781       16.793816
 O         9.076980        9.065191       16.810625
 O         1.319291        9.042972       12.330827
 O         5.203727       11.765600       10.073371
 O         6.507620       12.693211       12.300470
 O         5.227687       11.807146       14.555033
 O         2.638800        8.196526       14.568496
 O         2.635775       12.704917       14.585507
 O         5.232402        9.032422       10.064740
 O         5.224619        9.064705       14.566552
 O         1.320290       11.835919       16.831282
 O         1.309610       11.775681       12.385018
 O         2.606789       12.673963       10.137472
 O         2.626690        8.196445       10.080283
 O         6.508551        8.127370       12.326627
 O         6.499568        8.147515       16.805420
 O         6.520727       12.694722       16.798895
 O         1.325069        9.105775       16.781223
 H         9.076692        2.726837       12.331776
 H         8.173971        1.465843       12.338629
 H        12.942748        3.515682       10.078639
 H        12.075242        4.791286       10.066829
 H        13.805097        5.046573       11.551181
 H        13.788812        5.049811       13.098647
 H        12.062346        4.850994       14.594040
 H        13.405803        4.839657       15.356672
 H        11.290117        1.168996       14.523076
 H         9.951946        1.158154       13.752827
 H        10.379012        6.411679       14.592833
 H         9.926722        5.145158       15.358958
 H        12.012781        1.403829       10.130219
 H        13.362893        1.401447       10.899831
 H        13.421758        1.461510       15.292846
 H        12.961040        2.732355       14.543105
 H         8.168741        4.813622       16.793636
 H         9.060620        3.553321       16.774414
 H         9.596420        4.841203       13.099616
 H         9.599867        4.827220       11.550795
 H        10.393064        6.368529       10.050728
 H         9.930920        5.104145        9.286784
 H         9.877696        1.164010        9.305084
 H         9.877701        1.171751       10.853041
 H        13.821086        1.179976       13.109096
 H        15.172697        1.175023       12.365681
 H        15.137818        1.188451       16.766035
 H        13.755031        1.214378       17.462217
 H        13.812362        5.134478       17.590322
 H        14.254202        6.396849       16.806105
 H         8.174395        1.428166       16.745861
 H         9.520782        1.436328       15.982217
 H         8.176517        8.720046        3.285121
 H         9.527253        8.695413        2.526177
 H        12.051111       12.141606        1.090383
 H        13.392047       12.070333        1.864566
 H        15.166118       12.241984        3.348854
 H        13.822342       12.307102        4.118019
 H        12.906352       10.810228        5.584797
 H        12.032557       12.085366        5.589148
 H        10.339932        7.172270        5.564765
 H         9.903924        8.431416        4.777857
 H         9.881029       12.362926        6.363068
 H         9.888432       12.352121        4.815215
 H        12.957137       10.030081        1.020176
 H        13.427805        8.776693        0.245722
 H        12.044396        8.691712        5.545454
 H        13.379811        8.718085        4.764899
 H         9.096971       10.822238        7.873669
 H         9.546218       12.088901        8.637598
 H         9.546356       12.087642        2.537810
 H         9.110378       10.809176        3.294327
 H        10.332227       13.692751        1.077871
 H         9.912685       12.430228        0.291055
 H        10.423449        7.173164        1.076879
 H        11.299631        8.447960        1.066419
 H        13.819599        8.499002        2.497688
 H        15.147888        8.498379        3.289225
 H        14.258137        7.230088        7.817452
 H        13.796934        8.471644        7.022652
 H        13.794214       12.357615        7.018620
 H        14.209539       13.618098        7.808814
 H         9.584887        8.713759        8.601501
 H         9.580014        8.720256        7.051792
 H         1.348709       10.011652        3.323377
 H         1.770576        8.754887        4.110339
 H         5.213982       10.857304        1.075066
 H         5.688364       12.107881        0.304633
 H         7.421485       12.361664        3.320337
 H         6.081824       12.379306        2.551926
 H         5.692944       12.161200        6.369463
 H         5.691154       12.162905        4.818819
 H         2.642414        7.233605        5.587733
 H         2.166371        8.481339        6.364943
 H         2.194682       12.356035        6.390567
 H         3.540732       12.378543        5.620967
 H         5.621071        8.737813        0.289491
 H         4.275236        8.747571        1.051388
 H         5.200418       10.062466        5.572862
 H         4.302680        8.804416        5.571811
 H         0.421215       12.124897        7.853449
 H         1.744913       12.129418        8.658101
 H         1.818487       12.101509        4.104841
 H         1.817150       12.137948        2.559771
 H         3.554306       12.456265        1.099506
 H         2.654790       13.716524        1.087419
 H         2.596967        7.194173        1.074981
 H         2.142591        8.442408        1.869141
 H         6.026999        8.506862        4.092204
 H         6.004755        8.500243        2.546200
 H         7.427507        8.484707        7.785484
 H         6.083047        8.509919        7.017870
 H         7.406507       12.384804        7.875455
 H         6.055955       12.375892        8.626582
 H         1.312872       10.035917        7.835038
 H         0.412698        8.782217        7.821980
 H         1.376853        2.793604        3.298178
 H         1.808936        1.499668        4.026285
 H         5.228849        3.524808        1.100056
 H         5.667228        4.798349        1.860726
 H         6.513891        6.385279        3.306849
 H         7.434412        5.142851        3.309504
 H         5.236265        3.544458        5.525671
 H         5.692773        4.803811        4.753372
 H         2.012200        1.051980        6.246083
 H         2.568838       14.409725        5.554192
 H         2.247792        5.152135        6.376574
 H         3.568736        5.120517        5.579450
 H         4.316310        1.439288        1.068650
 H         5.644078        1.411407        1.868116
 H         4.290555        1.424373        5.520635
 H         5.630409        1.409801        4.755377
 H         1.417227        3.677206        7.952618
 H         1.866223        4.944368        8.671258
 H         1.807576        4.896573        2.546400
 H         1.813091        4.909334        4.093934
 H         2.181243        5.090164        0.270766
 H         3.527266        5.081072        1.037684
 H         2.201467        1.229795        1.803244
 H         2.167148        1.187264        0.262755
 H         7.385684        1.166937        3.324852
 H         6.528833       14.479227        3.325749
 H         5.999725        1.141252        7.031968
 H         6.450348       14.492727        7.822644
 H         6.491817        6.383097        7.789278
 H         6.053730        5.117991        7.017341
 H         1.770518        1.491540        9.018206
 H         9.468672        1.473075        4.133771
 H         9.058964        2.749494        3.360056
 H        12.964251        3.547862        1.060680
 H        13.424495        4.786857        1.877076
 H        15.175988        5.134359        3.327838
 H        14.272307        6.384009        3.307136
 H        13.446426        4.927797        6.358746
 H        13.426578        4.890444        4.813573
 H        11.126373        1.197845        5.638522
 H        10.287628       14.497193        5.576474
 H        11.279071        5.120694        5.621447
 H         9.932424        5.072110        6.386728
 H        13.455519        1.370684        1.559424
 H        12.001811        1.482421        1.014231
 H        12.793509        2.782536        5.700825
 H         9.050288        3.524837        7.854383
 H         8.171140        4.794931        7.841241
 H         9.580939        4.855494        2.566744
 H         9.560207        4.859262        4.116463
 H         9.962159        5.081851        0.295833
 H        11.310548        5.078272        1.058875
 H         9.853589        1.202260        1.868360
 H         9.850113        1.199319        0.319156
 H        15.359280        0.985228        2.800096
 H        14.468443       14.319890        2.833092
 H        13.223054        1.512276        6.456459
 H        13.725883        1.105715        8.682644
 H        13.865485        5.104657        8.639862
 H        15.214019        5.164534        7.887863
 H         8.122185        1.434156        7.846392
 H         9.442171        1.419359        7.050683
 H         1.351413        2.742617       12.436795
 H         1.790574        1.483430       13.230435
 H         5.660267        4.852571        9.279062
 H         4.345752        4.864561       10.091012
 H         7.445245        5.067268       12.313942
 H         6.108553        5.071251       11.532564
 H         5.219165        3.530354       14.545658
 H         5.679193        4.782435       13.767651
 H         2.671621       14.479529       14.598377
 H         3.580992        1.131631       14.601795
 H         2.674619        6.428469       14.581066
 H         3.547285        5.147186       14.568051
 H         5.663835        1.471501        9.310919
 H         5.258349        2.741839       10.094195
 H         5.699073        1.414609       13.803128
 H         5.706257        1.421339       15.350531
 H         1.750107        4.867786       15.991947
 H         0.406075        4.848831       16.761070
 H         0.429501        4.837034       12.368210
 H         1.769463        4.883037       13.143840
 H         2.643404        6.437371       10.155773
 H         2.194281        5.168130       10.923657
 H         2.269129        1.161386       11.091660
 H         3.590684        1.168047       10.268754
 H         6.072718        1.149700       11.552958
 H         6.504889       14.473783       12.307922
 H         6.503946       14.465487       16.826685
 H         6.061049        1.133255       17.594259
 H         6.026958        5.077598       16.016020
 H         6.025373        5.078816       17.563427
 H         1.311736        2.737682       16.753754
 H         1.777125        1.467663       16.005589
 H         9.060167       10.025882       12.303457
 H         8.173784        8.755971       12.312583
 H        12.993385       10.830949       10.072733
 H        13.437404       12.071712        9.269031
 H        14.257914       13.668683       12.300306
 H        13.811850       12.408959       11.520071
 H        13.460840       12.130366       15.334339
 H        13.457069       12.128943       13.784328
 H         9.901773        8.507113       13.786991
 H         9.902463        8.512249       15.335741
 H        10.421660       13.652033       14.544327
 H        11.323543       12.397169       14.547407
 H        13.471588        8.712687       10.847535
 H        13.451542        8.742218        9.299413
 H        12.957948       10.029341       14.535213
 H        12.050038        8.777990       14.541838
 H         9.563460       12.082565       15.978727
 H         9.104239       10.831783       16.768726
 H         9.570001       12.115911       13.078636
 H         9.573019       12.122643       11.533349
 H        11.317375       12.411561       10.073361
 H        10.405614       13.664863       10.079055
 H        11.311564        8.476295       10.107402
 H         9.962976        8.478197       10.867211
 H        14.259651        7.149057       12.342957
 H        13.814789        8.426090       13.095706
 H        15.182609        8.507403       16.737289
 H        13.843815        8.491257       15.956861
 H        14.246802       13.693309       16.800882
 H        13.801759       12.435008       17.583557
 H         9.521255        8.728374       17.596636
 H         8.173434        8.731742       16.833429
 H         0.422477        8.691106       12.303698
 H         1.762860        8.743799       11.529738
 H         4.285959       12.055846       10.093787
 H         5.191222       10.802217       10.068666
 H         6.071487       12.352034       11.512043
 H         7.414864       12.370012       12.280396
 H         5.652802       12.133006       13.754301
 H         4.321705       12.134504       14.545597
 H         2.161001        8.500162       13.788581
 H         2.164266        8.533464       15.336874
 H         2.168144       12.390241       15.366761
 H         2.152943       12.368095       13.822423
 H         5.704401        8.710275        9.289166
 H         5.693096        8.694534       10.839812
 H         5.216074       10.028038       14.559126
 H         4.302222        8.784778       14.565120
 H         0.415503       12.167931       16.849186
 H         1.758568       12.172946       17.620235
 H         0.395920       12.079804       12.358081
 H         1.283929       10.812485       12.369260
 H         2.152656       12.363015       10.928401
 H         2.635696       13.632586       10.203884
 H         2.192406        8.512500        9.280467
 H         3.538463        8.506148       10.049827
 H         6.048957        8.432947       13.115750
 H         6.509152        7.164621       12.357529
 H         6.486652        7.184425       16.777870
 H         6.049602        8.454141       16.010221
 H         6.083343       12.375794       16.002106
 H         7.427299       12.368378       16.768673
 H         1.336156       10.068540       16.824787
 H         1.768737        8.786740       17.574909
 H        15.066963        1.113104        7.952968
