383
 generated by VMD
 O         9.088488        1.743302       12.288504
 O        12.984465        4.503441       10.060953
 O        14.291836        5.411761       12.291074
 O        12.938755        4.604120       14.545356
 O        10.265055        0.811861       14.534227
 O        10.344962        5.397991       14.536337
 O        12.983466        1.761988       10.052141
 O        12.858192        1.827359       14.214943
 O         9.092219        4.504477       16.806540
 O         9.097437        4.473186       12.287691
 O        10.390701        5.388530       10.067913
 O        10.402128        0.853245       10.065353
 O        14.286036        0.824282       12.227240
 O        14.454783        0.712225       17.193380
 O        14.288928        5.439044       16.805716
 O         9.075956        1.763719       16.828932
 O         9.071192        9.091700        3.361745
 O        12.958716       11.745263        1.135509
 O        14.278859       12.718441        3.357533
 O        12.995492       11.813795        5.599513
 O        10.392042        8.164366        5.586398
 O        10.407546       12.704016        5.582327
 O        12.951242        9.014287        1.126761
 O        12.969440        9.077244        5.602998
 O         9.088429       11.791242        7.803516
 O         9.066154       11.824879        3.369112
 O        10.370823       12.707809        1.117419
 O        10.350740        8.174918        1.127090
 O        14.255704        8.131737        3.370161
 O        14.276849        8.161138        7.834885
 O        14.273152       12.726052        7.842890
 O         9.102962        9.045691        7.844608
 O         1.290142        9.089977        3.369984
 O         5.218104       11.804860        1.100563
 O         6.475749       12.724911        3.366699
 O         5.200931       11.786443        5.614387
 O         2.634087        8.169206        5.583949
 O         2.635788       12.728257        5.582954
 O         5.185047        9.067695        1.099581
 O         5.228672        9.045464        5.592800
 O         1.321879       11.815493        7.810279
 O         1.336728       11.839597        3.340406
 O         2.627694       12.691306        1.062175
 O         2.596911        8.172746        1.128284
 O         6.500072        8.156795        3.333736
 O         6.516796        8.149580        7.837257
 O         6.510869       12.709503        7.846464
 O         1.326131        9.077831        7.813925
 O         1.339909        1.745291        3.349494
 O         5.228586        4.495796        1.099300
 O         6.502929        5.420988        3.341008
 O         5.183629        4.531020        5.568363
 O         2.636557        0.862675        5.597394
 O         2.594874        5.424915        5.594967
 O         5.226236        1.747137        1.078831
 O         5.215665        1.788655        5.594576
 O         1.308967        4.497796        7.844207
 O         1.316668        4.500124        3.361115
 O         2.649559        5.433351        1.132213
 O         2.641842        0.838669        1.089377
 O         6.472134        0.865925        3.348581
 O         6.537053        0.847024        7.803393
 O         6.509882        5.415520        7.789278
 O         1.335431        1.761970        7.845710
 O         9.058107        1.770045        3.405297
 O        12.933796        4.553313        1.082249
 O        14.253204        5.389928        3.329682
 O        12.985066        4.490385        5.586927
 O        10.384467        0.837011        5.611524
 O        10.397363        5.426816        5.611089
 O        12.894227        1.824890        1.179185
 O        12.974384        1.751055        5.618483
 O         9.086109        4.499563        7.828606
 O         9.088896        4.517155        3.369374
 O        10.348780        5.442883        1.110504
 O        10.333530        0.858445        1.160681
 O        14.257819        0.873980        3.369065
 O        14.273477        0.857872        7.845862
 O        14.265206        5.424298        7.818019
 O         9.108210        1.768197        7.845136
 O         1.364457        1.754820       12.275509
 O         5.235508        4.484462       10.033340
 O         6.523427        5.405617       12.265593
 O         5.235258        4.515835       14.517505
 O         2.660049        0.850210       14.529546
 O         2.636041        5.401365       14.536002
 O         5.235637        1.740372       10.035494
 O         5.236002        1.772824       14.508342
 O         1.372041        4.548768       16.810640
 O         1.341158        4.485767       12.295932
 O         2.649141        5.414880       10.061632
 O         2.657239        0.833946       10.042720
 O         6.505547        0.828488       12.273646
 O         6.506637        0.846070       16.765335
 O         6.509811        5.420669       16.787771
 O         1.396436        1.828757       16.769241
 O         9.069739        9.033957       12.282630
 O        12.958669       11.791835       10.059461
 O        14.254617       12.698660       12.279610
 O        12.963493       11.757963       14.521400
 O        10.332158        8.128550       14.544763
 O        10.371563       12.665709       14.550904
 O        12.974284        9.053573       10.069551
 O        12.926140        9.023942       14.561657
 O         9.104879       11.792803       16.807497
 O         9.096406       11.772484       12.301349
 O        10.366888       12.713923       10.053657
 O        10.399192        8.115988       10.065951
 O        14.233569        8.132720       12.329457
 O        14.248872        8.175353       16.808733
 O        14.221991       12.606081       16.809031
 O         9.076858        9.046787       16.803438
 O         1.288639        9.038669       12.314095
 O         5.218658       11.795949       10.078278
 O         6.509081       12.690303       12.329385
 O         5.214568       11.781031       14.570592
 O         2.596949        8.134151       14.551740
 O         2.619128       12.704046       14.513947
 O         5.185791        9.061064       10.054644
 O         5.189874        9.044978       14.546581
 O         1.323768       11.761583       16.753954
 O         1.315856       11.779626       12.270915
 O         2.629263       12.696388       10.053356
 O         2.600084        8.161582       10.066936
 O         6.478086        8.140944       12.292040
 O         6.479200        8.160334       16.806818
 O         6.515450       12.707229       16.817541
 O         1.312598        9.022773       16.812967
 H         8.182050        1.418676       12.286027
 H         9.493453        1.400487       13.095455
 H        13.409864        4.838872        9.264708
 H        12.075385        4.821057       10.047471
 H        13.850130        5.071039       11.506009
 H        15.192237        5.070379       12.275405
 H        13.429617        4.909328       13.776578
 H        13.430004        4.888010       15.321306
 H         9.857492        1.114921       15.350471
 H        10.297590       14.453444       14.571948
 H         9.927222        5.068573       15.339146
 H        11.265795        5.110130       14.560287
 H        13.460282        1.450916       10.832871
 H        12.994337        2.724311       10.081541
 H        11.966072        1.508308       14.344260
 H         8.187553        4.835357       16.815750
 H         9.517019        4.850144       17.598871
 H         9.540243        4.776254       13.088477
 H         9.108145        3.509378       12.313800
 H         9.928447        5.052278       10.844358
 H         9.911263        5.067690        9.296670
 H         9.968696        1.176015       10.863703
 H        11.308587        1.180071       10.086865
 H        15.186406        1.154948       12.282354
 H        13.793591        1.201530       12.974428
 H        13.845870        1.142239       17.808996
 H        12.848862        2.772892       14.356939
 H        14.304340        6.401941       16.810167
 H        15.205666        5.147924       16.814030
 H         9.518372        1.466915       17.630438
 H         9.101215        2.726600       16.838558
 H         9.041585       10.054824        3.370434
 H         8.158379        8.783540        3.355956
 H        12.962969       10.781982        1.170109
 H        13.420179       12.055979        1.921035
 H        14.283908       13.681015        3.352944
 H        15.200343       12.436713        3.348901
 H        13.460933       12.151114        6.372831
 H        13.469321       12.136823        4.825399
 H         9.949225        8.496216        4.798084
 H        11.292709        8.506448        5.567715
 H        10.420312       13.667446        5.597102
 H        11.326218       12.413516        5.585871
 H        12.041129        8.698423        1.151482
 H        13.389606        8.676700        1.915339
 H        12.990941       10.040360        5.623066
 H        13.427932        8.772971        6.393676
 H         9.556889       12.080072        7.012840
 H         9.105328       10.828266        7.802088
 H         9.555785       12.148314        4.133672
 H         9.532053       12.140734        2.587683
 H         9.941474       12.380091        0.319283
 H        11.268373       12.361063        1.107880
 H         9.881744        8.522348        1.893979
 H         9.889668        8.496661        0.344833
 H        13.820754        8.470716        4.159880
 H        15.154816        8.477750        3.383948
 H        14.295341        7.197738        7.827404
 H        15.193303        8.457397        7.822167
 H        14.259112       13.689315        7.870599
 H        13.806798       12.418406        8.627923
 H         9.579612        8.707874        8.611063
 H         9.564959        8.719316        7.064970
 H         1.312902       10.052613        3.384723
 H         1.768641        8.789213        4.149861
 H         5.670316       12.136768        1.883232
 H         5.699458       12.139636        0.335337
 H         6.041522       12.387970        4.157449
 H         7.383448       12.403495        3.391999
 H         5.664077       12.086550        6.403712
 H         5.220840       10.823411        5.627100
 H         2.637950        7.206152        5.585463
 H         3.555501        8.450296        5.584154
 H         2.185175       12.399425        6.368365
 H         3.535128       12.383555        5.614268
 H         5.176402       10.031090        1.105400
 H         4.265276        8.781202        1.112620
 H         5.693442        8.723349        4.812891
 H         5.704868        8.716830        6.362754
 H         1.763140       12.137295        8.603815
 H         0.418317       12.148779        7.839981
 H         1.815824       12.169977        4.108163
 H         1.808331       12.146168        2.559198
 H         2.194627       12.345275        0.275777
 H         3.534986       12.367002        1.048411
 H         2.122634        8.507920        1.896382
 H         2.119425        8.478885        0.349095
 H         6.492544        7.193492        3.309438
 H         6.032402        8.457270        2.547062
 H         6.065838        8.482241        8.620785
 H         7.422333        8.476899        7.870471
 H         7.424836       12.405281        7.824695
 H         6.538836       13.672181        7.823317
 H         1.329861       10.041052        7.791996
 H         1.792874        8.780588        7.025399
 H         0.432527        1.423893        3.331825
 H         1.771015        1.414626        2.555200
 H         5.203288        3.533148        1.087292
 H         4.314620        4.799513        1.112330
 H         6.049644        5.077838        2.562835
 H         6.015539        5.099230        4.107304
 H         5.170994        3.567647        5.579164
 H         4.264738        4.820789        5.577238
 H         2.628340       14.501448        5.577655
 H         2.177539        1.157066        4.803674
 H         2.122431        5.093898        4.823042
 H         2.128829        5.093203        6.369598
 H         5.654902        1.423047        0.279169
 H         4.325060        1.408413        1.067182
 H         4.312923        1.451701        5.587057
 H         5.635089        1.460140        4.791487
 H         1.781244        4.804102        8.625582
 H         1.330766        3.534722        7.868056
 H         0.396506        4.785105        3.340060
 H         1.309259        3.537685        3.355030
 H         2.628368        6.396328        1.159222
 H         2.176835        5.125430        1.912268
 H         2.625712       14.478259        1.048180
 H         2.218833        1.161433        0.288796
 H         6.464764       14.504756        3.339217
 H         6.036303        1.154531        2.539128
 H         7.438710        1.186966        7.793121
 H         6.097740        1.186793        7.016167
 H         6.037301        5.132677        6.998695
 H         6.499803        6.378801        7.792838
 H         1.814517        1.421284        8.609692
 H         1.799821        1.440557        7.065798
 H         9.047160        2.733148        3.391890
 H         8.139835        1.479210        3.393569
 H        12.033239        4.895010        1.058578
 H        13.381302        4.867865        0.289456
 H        14.250596        6.353250        3.335370
 H        13.785802        5.119419        2.531983
 H        13.432324        4.775427        4.782742
 H        12.987783        3.527014        5.582312
 H         9.907682        1.171722        4.844112
 H         9.922698        1.171261        6.388222
 H        10.429047        6.389611        5.600506
 H        11.309129        5.116999        5.598647
 H        12.872149        2.787313        1.141725
 H        11.982004        1.515809        1.171276
 H        12.070928        1.418166        5.636508
 H        13.412155        1.424945        6.413032
 H         8.181604        4.829352        7.791358
 H         9.535885        4.835783        7.045698
 H         8.185085        4.850243        3.388818
 H         9.527155        4.846703        4.160874
 H        10.328015        6.405802        1.141789
 H         9.908053        5.131107        1.908214
 H        10.341993       14.497873        1.167554
 H         9.872100        1.142696        1.956952
 H        13.809196        1.180541        4.165014
 H        13.760108        1.230060        2.626739
 H        13.836164        1.199759        8.635465
 H        15.179007        1.184685        7.864496
 H        15.166174        5.082981        7.814509
 H        13.838922        5.088725        7.021704
 H         9.116808        2.731489        7.861640
 H         9.567913        1.470446        8.638648
 H         1.834264        1.417615       11.505574
 H         1.832113        1.427375       13.050007
 H         5.686939        4.782071        9.236280
 H         5.240993        3.521284       10.014628
 H         7.426776        5.070361       12.250099
 H         6.087800        5.064692       11.476748
 H         5.696199        4.846450       15.295406
 H         5.708908        4.844659       13.745951
 H         2.203608        1.163616       15.315315
 H         2.635120       14.489978       14.552580
 H         3.544067        5.082096       14.504009
 H         2.193180        5.063715       13.749503
 H         5.699630        1.407484       10.812043
 H         5.710700        1.413066        9.263916
 H         5.214321        2.735665       14.508296
 H         4.320940        1.472507       14.516241
 H         1.841549        4.877484       17.584545
 H         1.839788        4.869551       16.032051
 H         1.356606        3.522194       12.268137
 H         1.805842        4.793177       11.510851
 H         2.659930        6.377732       10.065544
 H         3.565879        5.121130       10.050435
 H         3.575045        1.128029       10.040090
 H         2.671986       14.472851       10.049673
 H         6.495616       14.468397       12.317141
 H         6.053710        1.146586       13.062984
 H         7.409038        1.185124       16.767828
 H         6.086103        1.178279       15.965429
 H         6.050796        5.109358       17.574787
 H         6.488703        6.383280       16.819136
 H         1.384756        2.793007       16.781164
 H         0.491211        1.541590       16.820370
 H         9.512536        8.693405       11.498046
 H         8.161224        8.714992       12.255090
 H        12.054620       12.122610       10.076618
 H        13.392099       12.122869       10.854903
 H        14.252509       13.663719       12.296068
 H        13.805974       12.401724       13.077667
 H        13.405157       12.043143       15.326013
 H        12.960262       10.794618       14.538099
 H        10.319422        7.164798       14.523775
 H         9.882264        8.429010       13.748076
 H        11.280884       12.350504       14.520761
 H         9.941412       12.343204       13.751718
 H        13.440982        8.762808        9.278616
 H        12.973080       10.016909       10.052598
 H        13.365995        8.686324       13.773408
 H        12.020966        8.695477       14.536546
 H         9.555017       12.078442       16.004128
 H         9.100713       10.829855       16.790260
 H         9.102843       10.809853       12.267387
 H         9.540330       12.084211       11.505656
 H         9.917011       12.419850        9.254916
 H        10.364602       13.677217       10.039137
 H        11.312670        8.421811       10.073677
 H        10.423888        7.152465       10.070664
 H        14.244425        7.169324       12.290577
 H        13.791142        8.438217       11.530420
 H        13.763031        8.484041       16.036287
 H        13.773036        8.484049       17.587242
 H        14.225179       13.555675       16.872604
 H        13.779743       12.288432       17.604511
 H         9.504584        8.709327       16.008724
 H         8.168774        8.726871       16.784792
 H         1.728009        8.716091       13.108278
 H         0.384227        8.707897       12.343520
 H         5.690009       12.133960        9.308727
 H         5.685766       12.119545       10.855982
 H         7.413635       12.359862       12.347181
 H         6.076152       12.359207       13.123616
 H         5.219208       10.817854       14.589744
 H         5.666379       12.080166       15.366442
 H         2.600307        7.170730       14.564316
 H         2.146366        8.420995       15.352996
 H         3.521871       12.369375       14.508606
 H         2.190451       12.373929       13.717254
 H         5.175158       10.024492       10.063852
 H         4.266454        8.772988       10.056002
 H         4.284505        8.717260       14.524843
 H         5.624501        8.715878       13.752519
 H         1.744647       12.096480       15.954959
 H         0.413229       12.069077       16.744547
 H         0.403414       12.088849       12.277032
 H         1.280641       10.817069       12.285006
 H         3.532728       12.363893       10.080482
 H         2.184645       12.362251       10.840257
 H         2.119950        8.475244       10.840826
 H         2.133071        8.492773        9.292348
 H         6.481934        7.177843       12.261222
 H         6.017120        8.442831       11.502063
 H         6.007797        8.479229       16.030249
 H         6.007679        8.495029       17.577585
 H         7.431897       12.410676       16.807903
 H         6.534265       13.670272       16.792835
 H         0.389976        8.744511       16.805222
 H         1.306752        9.985382       16.785543
383
 generated by VMD
 O         9.088488        1.743302       12.288504
 O        12.984465        4.503441       10.060953
 O        14.291836        5.411761       12.291074
 O        12.938755        4.604120       14.545356
 O        10.265055        0.811861       14.534227
 O        10.344962        5.397991       14.536337
 O        12.983466        1.761988       10.052141
 O        12.858192        1.827359       14.214943
 O         9.092219        4.504477       16.806540
 O         9.097437        4.473186       12.287691
 O        10.390701        5.388530       10.067913
 O        10.402128        0.853245       10.065353
 O        14.286036        0.824282       12.227240
 O        14.454783        0.712225       17.193380
 O        14.288928        5.439044       16.805716
 O         9.075956        1.763719       16.828932
 O         9.071192        9.091700        3.361745
 O        12.958716       11.745263        1.135509
 O        14.278859       12.718441        3.357533
 O        12.995492       11.813795        5.599513
 O        10.392042        8.164366        5.586398
 O        10.407546       12.704016        5.582327
 O        12.951242        9.014287        1.126761
 O        12.969440        9.077244        5.602998
 O         9.088429       11.791242        7.803516
 O         9.066154       11.824879        3.369112
 O        10.370823       12.707809        1.117419
 O        10.350740        8.174918        1.127090
 O        14.255704        8.131737        3.370161
 O        14.276849        8.161138        7.834885
 O        14.273152       12.726052        7.842890
 O         9.102962        9.045691        7.844608
 O         1.290142        9.089977        3.369984
 O         5.218104       11.804860        1.100563
 O         6.475749       12.724911        3.366699
 O         5.200931       11.786443        5.614387
 O         2.634087        8.169206        5.583949
 O         2.635788       12.728257        5.582954
 O         5.185047        9.067695        1.099581
 O         5.228672        9.045464        5.592800
 O         1.321879       11.815493        7.810279
 O         1.336728       11.839597        3.340406
 O         2.627694       12.691306        1.062175
 O         2.596911        8.172746        1.128284
 O         6.500072        8.156795        3.333736
 O         6.516796        8.149580        7.837257
 O         6.510869       12.709503        7.846464
 O         1.326131        9.077831        7.813925
 O         1.339909        1.745291        3.349494
 O         5.228586        4.495796        1.099300
 O         6.502929        5.420988        3.341008
 O         5.183629        4.531020        5.568363
 O         2.636557        0.862675        5.597394
 O         2.594874        5.424915        5.594967
 O         5.226236        1.747137        1.078831
 O         5.215665        1.788655        5.594576
 O         1.308967        4.497796        7.844207
 O         1.316668        4.500124        3.361115
 O         2.649559        5.433351        1.132213
 O         2.641842        0.838669        1.089377
 O         6.472134        0.865925        3.348581
 O         6.537053        0.847024        7.803393
 O         6.509882        5.415520        7.789278
 O         1.335431        1.761970        7.845710
 O         9.058107        1.770045        3.405297
 O        12.933796        4.553313        1.082249
 O        14.253204        5.389928        3.329682
 O        12.985066        4.490385        5.586927
 O        10.384467        0.837011        5.611524
 O        10.397363        5.426816        5.611089
 O        12.894227        1.824890        1.179185
 O        12.974384        1.751055        5.618483
 O         9.086109        4.499563        7.828606
 O         9.088896        4.517155        3.369374
 O        10.348780        5.442883        1.110504
 O        10.333530        0.858445        1.160681
 O        14.257819        0.873980        3.369065
 O        14.273477        0.857872        7.845862
 O        14.265206        5.424298        7.818019
 O         9.108210        1.768197        7.845136
 O         1.364457        1.754820       12.275509
 O         5.235508        4.484462       10.033340
 O         6.523427        5.405617       12.265593
 O         5.235258        4.515835       14.517505
 O         2.660049        0.850210       14.529546
 O         2.636041        5.401365       14.536002
 O         5.235637        1.740372       10.035494
 O         5.236002        1.772824       14.508342
 O         1.372041        4.548768       16.810640
 O         1.341158        4.485767       12.295932
 O         2.649141        5.414880       10.061632
 O         2.657239        0.833946       10.042720
 O         6.505547        0.828488       12.273646
 O         6.506637        0.846070       16.765335
 O         6.509811        5.420669       16.787771
 O         1.396436        1.828757       16.769241
 O         9.069739        9.033957       12.282630
 O        12.958669       11.791835       10.059461
 O        14.254617       12.698660       12.279610
 O        12.963493       11.757963       14.521400
 O        10.332158        8.128550       14.544763
 O        10.371563       12.665709       14.550904
 O        12.974284        9.053573       10.069551
 O        12.926140        9.023942       14.561657
 O         9.104879       11.792803       16.807497
 O         9.096406       11.772484       12.301349
 O        10.366888       12.713923       10.053657
 O        10.399192        8.115988       10.065951
 O        14.233569        8.132720       12.329457
 O        14.248872        8.175353       16.808733
 O        14.221991       12.606081       16.809031
 O         9.076858        9.046787       16.803438
 O         1.288639        9.038669       12.314095
 O         5.218658       11.795949       10.078278
 O         6.509081       12.690303       12.329385
 O         5.214568       11.781031       14.570592
 O         2.596949        8.134151       14.551740
 O         2.619128       12.704046       14.513947
 O         5.185791        9.061064       10.054644
 O         5.189874        9.044978       14.546581
 O         1.323768       11.761583       16.753954
 O         1.315856       11.779626       12.270915
 O         2.629263       12.696388       10.053356
 O         2.600084        8.161582       10.066936
 O         6.478086        8.140944       12.292040
 O         6.479200        8.160334       16.806818
 O         6.515450       12.707229       16.817541
 O         1.312598        9.022773       16.812967
 H         8.182050        1.418676       12.286027
 H         9.493453        1.400487       13.095455
 H        13.409864        4.838872        9.264708
 H        12.075385        4.821057       10.047471
 H        13.850130        5.071039       11.506009
 H        15.192237        5.070379       12.275405
 H        13.429617        4.909328       13.776578
 H        13.430004        4.888010       15.321306
 H         9.857492        1.114921       15.350471
 H        10.297590       14.453444       14.571948
 H         9.927222        5.068573       15.339146
 H        11.265795        5.110130       14.560287
 H        13.460282        1.450916       10.832871
 H        12.994337        2.724311       10.081541
 H        11.966072        1.508308       14.344260
 H         8.187553        4.835357       16.815750
 H         9.517019        4.850144       17.598871
 H         9.540243        4.776254       13.088477
 H         9.108145        3.509378       12.313800
 H         9.928447        5.052278       10.844358
 H         9.911263        5.067690        9.296670
 H         9.968696        1.176015       10.863703
 H        11.308587        1.180071       10.086865
 H        15.186406        1.154948       12.282354
 H        13.793591        1.201530       12.974428
 H        13.845870        1.142239       17.808996
 H        12.848862        2.772892       14.356939
 H        14.304340        6.401941       16.810167
 H        15.205666        5.147924       16.814030
 H         9.518372        1.466915       17.630438
 H         9.101215        2.726600       16.838558
 H         9.041585       10.054824        3.370434
 H         8.158379        8.783540        3.355956
 H        12.962969       10.781982        1.170109
 H        13.420179       12.055979        1.921035
 H        14.283908       13.681015        3.352944
 H        15.200343       12.436713        3.348901
 H        13.460933       12.151114        6.372831
 H        13.469321       12.136823        4.825399
 H         9.949225        8.496216        4.798084
 H        11.292709        8.506448        5.567715
 H        10.420312       13.667446        5.597102
 H        11.326218       12.413516        5.585871
 H        12.041129        8.698423        1.151482
 H        13.389606        8.676700        1.915339
 H        12.990941       10.040360        5.623066
 H        13.427932        8.772971        6.393676
 H         9.556889       12.080072        7.012840
 H         9.105328       10.828266        7.802088
 H         9.555785       12.148314        4.133672
 H         9.532053       12.140734        2.587683
 H         9.941474       12.380091        0.319283
 H        11.268373       12.361063        1.107880
 H         9.881744        8.522348        1.893979
 H         9.889668        8.496661        0.344833
 H        13.820754        8.470716        4.159880
 H        15.154816        8.477750        3.383948
 H        14.295341        7.197738        7.827404
 H        15.193303        8.457397        7.822167
 H        14.259112       13.689315        7.870599
 H        13.806798       12.418406        8.627923
 H         9.579612        8.707874        8.611063
 H         9.564959        8.719316        7.064970
 H         1.312902       10.052613        3.384723
 H         1.768641        8.789213        4.149861
 H         5.670316       12.136768        1.883232
 H         5.699458       12.139636        0.335337
 H         6.041522       12.387970        4.157449
 H         7.383448       12.403495        3.391999
 H         5.664077       12.086550        6.403712
 H         5.220840       10.823411        5.627100
 H         2.637950        7.206152        5.585463
 H         3.555501        8.450296        5.584154
 H         2.185175       12.399425        6.368365
 H         3.535128       12.383555        5.614268
 H         5.176402       10.031090        1.105400
 H         4.265276        8.781202        1.112620
 H         5.693442        8.723349        4.812891
 H         5.704868        8.716830        6.362754
 H         1.763140       12.137295        8.603815
 H         0.418317       12.148779        7.839981
 H         1.815824       12.169977        4.108163
 H         1.808331       12.146168        2.559198
 H         2.194627       12.345275        0.275777
 H         3.534986       12.367002        1.048411
 H         2.122634        8.507920        1.896382
 H         2.119425        8.478885        0.349095
 H         6.492544        7.193492        3.309438
 H         6.032402        8.457270        2.547062
 H         6.065838        8.482241        8.620785
 H         7.422333        8.476899        7.870471
 H         7.424836       12.405281        7.824695
 H         6.538836       13.672181        7.823317
 H         1.329861       10.041052        7.791996
 H         1.792874        8.780588        7.025399
 H         0.432527        1.423893        3.331825
 H         1.771015        1.414626        2.555200
 H         5.203288        3.533148        1.087292
 H         4.314620        4.799513        1.112330
 H         6.049644        5.077838        2.562835
 H         6.015539        5.099230        4.107304
 H         5.170994        3.567647        5.579164
 H         4.264738        4.820789        5.577238
 H         2.628340       14.501448        5.577655
 H         2.177539        1.157066        4.803674
 H         2.122431        5.093898        4.823042
 H         2.128829        5.093203        6.369598
 H         5.654902        1.423047        0.279169
 H         4.325060        1.408413        1.067182
 H         4.312923        1.451701        5.587057
 H         5.635089        1.460140        4.791487
 H         1.781244        4.804102        8.625582
 H         1.330766        3.534722        7.868056
 H         0.396506        4.785105        3.340060
 H         1.309259        3.537685        3.355030
 H         2.628368        6.396328        1.159222
 H         2.176835        5.125430        1.912268
 H         2.625712       14.478259        1.048180
 H         2.218833        1.161433        0.288796
 H         6.464764       14.504756        3.339217
 H         6.036303        1.154531        2.539128
 H         7.438710        1.186966        7.793121
 H         6.097740        1.186793        7.016167
 H         6.037301        5.132677        6.998695
 H         6.499803        6.378801        7.792838
 H         1.814517        1.421284        8.609692
 H         1.799821        1.440557        7.065798
 H         9.047160        2.733148        3.391890
 H         8.139835        1.479210        3.393569
 H        12.033239        4.895010        1.058578
 H        13.381302        4.867865        0.289456
 H        14.250596        6.353250        3.335370
 H        13.785802        5.119419        2.531983
 H        13.432324        4.775427        4.782742
 H        12.987783        3.527014        5.582312
 H         9.907682        1.171722        4.844112
 H         9.922698        1.171261        6.388222
 H        10.429047        6.389611        5.600506
 H        11.309129        5.116999        5.598647
 H        12.872149        2.787313        1.141725
 H        11.982004        1.515809        1.171276
 H        12.070928        1.418166        5.636508
 H        13.412155        1.424945        6.413032
 H         8.181604        4.829352        7.791358
 H         9.535885        4.835783        7.045698
 H         8.185085        4.850243        3.388818
 H         9.527155        4.846703        4.160874
 H        10.328015        6.405802        1.141789
 H         9.908053        5.131107        1.908214
 H        10.341993       14.497873        1.167554
 H         9.872100        1.142696        1.956952
 H        13.809196        1.180541        4.165014
 H        13.760108        1.230060        2.626739
 H        13.836164        1.199759        8.635465
 H        15.179007        1.184685        7.864496
 H        15.166174        5.082981        7.814509
 H        13.838922        5.088725        7.021704
 H         9.116808        2.731489        7.861640
 H         9.567913        1.470446        8.638648
 H         1.834264        1.417615       11.505574
 H         1.832113        1.427375       13.050007
 H         5.686939        4.782071        9.236280
 H         5.240993        3.521284       10.014628
 H         7.426776        5.070361       12.250099
 H         6.087800        5.064692       11.476748
 H         5.696199        4.846450       15.295406
 H         5.708908        4.844659       13.745951
 H         2.203608        1.163616       15.315315
 H         2.635120       14.489978       14.552580
 H         3.544067        5.082096       14.504009
 H         2.193180        5.063715       13.749503
 H         5.699630        1.407484       10.812043
 H         5.710700        1.413066        9.263916
 H         5.214321        2.735665       14.508296
 H         4.320940        1.472507       14.516241
 H         1.841549        4.877484       17.584545
 H         1.839788        4.869551       16.032051
 H         1.356606        3.522194       12.268137
 H         1.805842        4.793177       11.510851
 H         2.659930        6.377732       10.065544
 H         3.565879        5.121130       10.050435
 H         3.575045        1.128029       10.040090
 H         2.671986       14.472851       10.049673
 H         6.495616       14.468397       12.317141
 H         6.053710        1.146586       13.062984
 H         7.409038        1.185124       16.767828
 H         6.086103        1.178279       15.965429
 H         6.050796        5.109358       17.574787
 H         6.488703        6.383280       16.819136
 H         1.384756        2.793007       16.781164
 H         0.491211        1.541590       16.820370
 H         9.512536        8.693405       11.498046
 H         8.161224        8.714992       12.255090
 H        12.054620       12.122610       10.076618
 H        13.392099       12.122869       10.854903
 H        14.252509       13.663719       12.296068
 H        13.805974       12.401724       13.077667
 H        13.405157       12.043143       15.326013
 H        12.960262       10.794618       14.538099
 H        10.319422        7.164798       14.523775
 H         9.882264        8.429010       13.748076
 H        11.280884       12.350504       14.520761
 H         9.941412       12.343204       13.751718
 H        13.440982        8.762808        9.278616
 H        12.973080       10.016909       10.052598
 H        13.365995        8.686324       13.773408
 H        12.020966        8.695477       14.536546
 H         9.555017       12.078442       16.004128
 H         9.100713       10.829855       16.790260
 H         9.102843       10.809853       12.267387
 H         9.540330       12.084211       11.505656
 H         9.917011       12.419850        9.254916
 H        10.364602       13.677217       10.039137
 H        11.312670        8.421811       10.073677
 H        10.423888        7.152465       10.070664
 H        14.244425        7.169324       12.290577
 H        13.791142        8.438217       11.530420
 H        13.763031        8.484041       16.036287
 H        13.773036        8.484049       17.587242
 H        14.225179       13.555675       16.872604
 H        13.779743       12.288432       17.604511
 H         9.504584        8.709327       16.008724
 H         8.168774        8.726871       16.784792
 H         1.728009        8.716091       13.108278
 H         0.384227        8.707897       12.343520
 H         5.690009       12.133960        9.308727
 H         5.685766       12.119545       10.855982
 H         7.413635       12.359862       12.347181
 H         6.076152       12.359207       13.123616
 H         5.219208       10.817854       14.589744
 H         5.666379       12.080166       15.366442
 H         2.600307        7.170730       14.564316
 H         2.146366        8.420995       15.352996
 H         3.521871       12.369375       14.508606
 H         2.190451       12.373929       13.717254
 H         5.175158       10.024492       10.063852
 H         4.266454        8.772988       10.056002
 H         4.284505        8.717260       14.524843
 H         5.624501        8.715878       13.752519
 H         1.744647       12.096480       15.954959
 H         0.413229       12.069077       16.744547
 H         0.403414       12.088849       12.277032
 H         1.280641       10.817069       12.285006
 H         3.532728       12.363893       10.080482
 H         2.184645       12.362251       10.840257
 H         2.119950        8.475244       10.840826
 H         2.133071        8.492773        9.292348
 H         6.481934        7.177843       12.261222
 H         6.017120        8.442831       11.502063
 H         6.007797        8.479229       16.030249
 H         6.007679        8.495029       17.577585
 H         7.431897       12.410676       16.807903
 H         6.534265       13.670272       16.792835
 H         0.389976        8.744511       16.805222
 H         1.306752        9.985382       16.785543
