383
 generated by VMD
 O         9.073618        1.746163       12.296578
 O        12.983123        4.528167       10.047171
 O        14.244401        5.404831       12.308885
 O        12.973320        4.532916       14.578365
 O        10.395537        0.959939       14.600691
 O        10.350650        5.337600       14.597334
 O        12.978261        1.793997       10.011078
 O        13.001668        1.804192       14.543670
 O         9.042048        4.483283       16.846046
 O         9.054008        4.487734       12.338720
 O        10.382814        5.360679       10.085264
 O        10.387411        0.868448       10.039423
 O        14.263914        0.893879       12.272223
 O        14.288268        0.972462       16.833164
 O        14.268757        5.451110       16.812059
 O         9.073063        1.767438       16.853184
 O         9.067607        9.068732        3.352508
 O        12.901916       11.780239        1.255630
 O        14.245067       12.708104        3.391513
 O        12.931924       11.787139        5.569939
 O        10.389898        8.152861        5.566756
 O        10.369993       12.740354        5.564165
 O        12.940514        9.073048        1.136555
 O        12.975222        9.039404        5.565608
 O         9.102117       11.807891        7.793514
 O         9.040011       11.796767        3.371327
 O        10.313089       12.727042        1.128822
 O        10.339583        8.157106        1.105228
 O        14.250351        8.125398        3.327922
 O        14.299022        8.151498        7.792196
 O        14.311003       12.730487        7.729348
 O         9.083710        9.058779        7.804155
 O         1.284245        9.051672        3.358210
 O         5.179919       11.820422        1.108350
 O         6.470258       12.724274        3.330884
 O         5.187766       11.784017        5.548979
 O         2.591886        8.159510        5.594062
 O         2.628040       12.725597        5.532300
 O         5.176839        9.084135        1.102852
 O         5.187084        9.041406        5.556656
 O         1.346912       11.818173        7.770644
 O         1.289469       11.796551        3.333235
 O         2.626805       12.748314        1.135828
 O         2.598842        8.164502        1.132866
 O         6.495903        8.153117        3.314092
 O         6.496424        8.129695        7.773162
 O         6.499648       12.714685        7.780269
 O         1.342136        9.085016        7.835223
 O         1.326231        1.759020        3.341492
 O         5.188791        4.502589        1.126019
 O         6.505105        5.426124        3.339223
 O         5.186776        4.537816        5.562921
 O         2.610325        0.850126        5.575625
 O         2.600342        5.423321        5.569952
 O         5.208707        1.766881        1.117823
 O         5.176123        1.801957        5.563156
 O         1.298082        4.498297        7.801913
 O         1.296728        4.485759        3.357180
 O         2.596734        5.416392        1.131991
 O         2.616532        0.880479        1.099938
 O         6.500914        0.863411        3.358317
 O         6.477934        0.861511        7.782939
 O         6.521410        5.393450        7.798197
 O         1.315145        1.758475        7.807034
 O         9.081349        1.795396        3.322556
 O        12.961457        4.526430        1.085695
 O        14.258116        5.397269        3.333230
 O        12.961849        4.492962        5.566358
 O        10.386868        0.874045        5.543429
 O        10.386009        5.407918        5.587622
 O        12.978492        1.776091        1.111098
 O        12.977000        1.765222        5.557865
 O         9.105699        4.467180        7.826628
 O         9.089658        4.539649        3.338188
 O        10.378615        5.420345        1.099266
 O        10.398690        0.851956        1.117147
 O        14.269821        0.858404        3.336731
 O        14.269829        0.856307        7.786929
 O        14.251564        5.414125        7.794177
 O         9.083155        1.731311        7.793960
 O         1.333587        1.770791       12.293740
 O         5.187612        4.518000       10.029719
 O         6.457910        5.406203       12.300137
 O         5.186073        4.509734       14.553930
 O         2.617426        0.875175       14.540798
 O         2.592657        5.413083       14.533043
 O         5.189277        1.776626       10.039196
 O         5.218344        1.766666       14.568248
 O         1.319466        4.553154       16.803827
 O         1.292579        4.493912       12.297339
 O         2.587266        5.407643       10.062132
 O         2.611914        0.846888       10.050017
 O         6.452348        0.851185       12.305095
 O         6.488353        0.858791       16.817738
 O         6.458484        5.403194       16.812927
 O         1.369069        1.818044       16.795399
 O         9.117419        8.958732       12.327268
 O        13.103305       11.761735        9.929343
 O        14.332055       12.743812       12.126753
 O        12.916607       11.680742       14.060156
 O        10.352684        8.064177       14.584997
 O        10.402249       12.858502       14.752680
 O        13.000882        9.008962       10.038470
 O        12.968557        8.941515       14.540946
 O         9.015516       11.783525       16.854240
 O         9.690760       11.698161       12.291973
 O        10.558720       12.719641        9.940090
 O        10.383910        8.088978       10.027058
 O        14.276447        8.132795       12.298881
 O        14.258263        8.168275       16.844105
 O        14.344066       12.819899       17.292622
 O         9.050721        9.033885       16.802017
 O         1.320729        9.085965       12.318616
 O         5.205843       11.781245       10.004290
 O         6.363295       12.650625       12.253380
 O         5.121341       11.773920       14.576454
 O         2.584085        8.156724       14.572304
 O         2.564769       12.745121       14.553084
 O         5.193656        9.057423       10.006561
 O         5.161900        9.043598       14.561044
 O         1.366903       11.780749       16.829325
 O         1.336452       11.821309       12.282589
 O         2.623073       12.712879       10.017524
 O         2.605369        8.157986       10.081122
 O         6.461276        8.160234       12.286558
 O         6.453584        8.143278       16.814405
 O         6.426400       12.720026       16.801666
 O         1.307259        9.068932       16.818949
 H         9.511908        1.423657       11.501993
 H         8.172161        1.411908       12.272739
 H        12.069937        4.834338       10.082101
 H        13.408720        4.843247       10.852702
 H        13.789163        5.124227       13.110238
 H        14.260477        6.368898       12.322591
 H        12.977898        3.568581       14.566631
 H        12.047742        4.798440       14.583122
 H         9.928515        1.216588       13.800098
 H        10.383200       14.598234       14.633702
 H         9.874642        5.011635       15.368736
 H         9.875128        5.023209       13.820813
 H        12.963067        2.757470       10.018420
 H        12.060675        1.503011       10.028224
 H        12.093646        1.483414       14.543897
 H        13.417215        1.463765       13.744905
 H         9.019476        3.519451       16.862930
 H         8.127986        4.786335       16.836800
 H         8.138692        4.785889       12.322380
 H         9.033912        3.524951       12.318551
 H        10.364220        6.324194       10.073377
 H         9.913760        5.082497       10.878733
 H        10.442883       14.511552        9.992485
 H         9.924007        1.151895        9.243497
 H        13.837957        1.229333       11.477552
 H        15.172216        1.211545       12.260553
 H        15.197256        1.282677       16.791840
 H        13.860538        1.242577       16.015484
 H        13.810064        5.150486       16.019875
 H        14.252392        6.415501       16.798151
 H         9.562280        1.431875       17.612698
 H         9.550016        1.482965       16.065331
 H         9.532207        8.765126        4.140024
 H         9.073096       10.032174        3.380580
 H        12.004152       12.114213        1.182320
 H        13.408461       12.162849        0.516736
 H        14.245592       13.669673        3.353018
 H        13.750184       12.400389        2.619048
 H        12.956992       10.824957        5.549080
 H        13.403236       12.096187        4.786108
 H        10.405435        7.189990        5.577443
 H        11.309106        8.442722        5.569503
 H        11.279975       12.422122        5.560761
 H        10.408392       13.702863        5.557067
 H        12.027281        8.771425        1.116998
 H        12.910570       10.038597        1.163627
 H        13.459059        8.724515        6.336771
 H        13.437827        8.704431        4.789475
 H         9.524516       12.150704        6.997673
 H         8.197788       12.138370        7.787262
 H         8.136772       12.130716        3.388377
 H         9.485712       12.145182        4.151208
 H         9.848672       12.383822        0.358411
 H         9.846649       12.395512        1.902753
 H        10.342009        7.194428        1.124021
 H         9.890833        8.454134        1.903783
 H        14.238085        7.162691        3.299091
 H        13.781881        8.438453        2.544588
 H        13.857259        8.466155        8.588940
 H        15.200507        8.489328        7.825687
 H        13.878798       12.363324        8.510602
 H        13.820741       12.394508        6.970730
 H         9.546253        8.762089        7.012989
 H         9.095160       10.021688        7.783559
 H         0.382843        8.710908        3.367102
 H         1.715423        8.733008        4.158254
 H         4.277380       12.160898        1.106068
 H         5.599294       12.143967        0.303054
 H         6.017884       12.432248        2.530881
 H         6.466724       13.687105        3.320176
 H         5.206225       10.820916        5.537529
 H         5.648580       12.083745        4.757518
 H         3.498775        8.484603        5.594991
 H         2.176061        8.494350        6.396661
 H         3.527652       12.379998        5.513499
 H         2.179580       12.387936        4.749192
 H         4.262319        8.780869        1.117853
 H         5.151444       10.047409        1.102118
 H         5.653216        8.713630        4.780239
 H         5.664999        8.708640        6.324816
 H         0.442146       12.149741        7.733998
 H         1.790132       12.140764        6.978568
 H         1.263678       10.834142        3.338290
 H         0.374008       12.098341        3.345137
 H         2.139029       12.437993        1.905792
 H         2.596210       13.710549        1.148691
 H         2.591667        7.201934        1.149326
 H         2.132713        8.456123        1.924128
 H         6.057329        8.491343        2.525689
 H         7.397297        8.494116        3.305763
 H         6.534686        7.166895        7.787136
 H         7.407131        8.443125        7.789444
 H         6.038279       12.409769        6.991716
 H         6.471520       13.677597        7.764882
 H         1.788228        8.790255        8.636514
 H         1.356545       10.048618        7.838400
 H         1.800713        1.443456        2.564368
 H         1.790188        1.417749        4.113863
 H         5.671262        4.840995        1.888217
 H         5.644211        4.828069        0.341856
 H         7.422608        5.131489        3.338721
 H         6.523687        6.389810        3.326539
 H         5.670717        4.844713        6.337590
 H         5.664249        4.862209        4.791288
 H         2.613334       14.488464        5.587646
 H         2.147947        1.141181        6.369359
 H         2.613653        6.386849        5.576984
 H         3.520145        5.136303        5.572755
 H         5.215853        2.730002        1.142761
 H         5.664313        1.466502        1.911602
 H         4.264191        1.491292        5.564014
 H         5.147426        2.764846        5.557865
 H         0.394467        4.831478        7.776913
 H         1.740192        4.832326        7.014382
 H         1.317436        3.522241        3.377330
 H         1.760314        4.793727        4.143608
 H         2.158022        5.070885        1.916838
 H         3.500484        5.084768        1.150769
 H         3.524561        1.200568        1.082478
 H         2.189049        1.212860        0.302548
 H         6.061419        1.201698        4.145959
 H         7.404489        1.196414        3.372303
 H         6.020490        1.188504        8.564857
 H         6.004409        1.211392        7.020641
 H         7.421677        5.052615        7.833579
 H         6.072062        5.076927        8.589610
 H         0.398345        1.461353        7.803974
 H         1.293082        2.721539        7.801085
 H         9.093536        2.758010        3.299139
 H         9.543921        1.488513        2.534539
 H        13.435946        4.861108        0.316361
 H        13.433582        4.842158        1.863356
 H        13.816133        5.069042        4.123966
 H        15.161150        5.061919        3.361354
 H        13.418505        4.797087        6.358589
 H        12.982588        3.529323        5.584134
 H        11.291500        1.205178        5.530669
 H         9.953141        1.212869        4.752807
 H        11.288396        5.069861        5.602535
 H         9.953387        5.071452        6.379928
 H        12.969935        2.738287        1.093905
 H        13.445805        1.498726        0.312194
 H        13.452295        1.438339        4.785252
 H        13.439272        1.427407        6.333100
 H         9.109905        3.503695        7.832613
 H         9.555259        4.753029        8.629053
 H         9.565412        4.867014        2.566592
 H         9.562161        4.854507        4.116573
 H        11.286017        5.097586        1.065270
 H         9.927907        5.081121        0.317976
 H        10.398825       14.489902        1.124053
 H        11.318767        1.137812        1.112926
 H        13.834616        1.190109        2.542901
 H        15.176603        1.180757        3.311211
 H        13.804328        1.154074        8.576324
 H        14.264108       14.494328        7.799881
 H        13.802046        5.128251        8.597631
 H        14.257579        6.377579        7.809495
 H         9.520399        1.412819        6.996921
 H         8.175630        1.409727        7.767871
 H         1.800014        1.430091       11.523099
 H         1.799256        1.442332       13.070651
 H         5.164496        3.554773       10.035182
 H         4.271241        4.814305       10.037935
 H         6.456447        6.368685       12.276682
 H         6.010985        5.112290       11.499015
 H         4.278880        4.832163       14.526670
 H         5.617665        4.834965       13.756124
 H         2.618309       14.513124       14.550016
 H         3.538016        1.156004       14.546408
 H         2.128459        5.094298       15.314209
 H         2.115613        5.078691       13.765897
 H         4.287319        1.437702       10.058141
 H         5.618532        1.453871       10.837802
 H         5.218178        2.730071       14.579847
 H         5.673436        1.478373       15.366855
 H         1.751416        4.871831       17.603056
 H         0.412503        4.878424       16.826075
 H         1.284213        3.529958       12.294587
 H         0.373985        4.784362       12.302188
 H         2.118542        5.071072       10.833897
 H         2.116306        5.084036        9.287569
 H         2.151922        1.152033        9.260852
 H         2.605844       14.485909       10.018353
 H         6.409106       14.495975       12.316114
 H         6.017688        1.157238       13.109912
 H         6.056008        1.186475       17.613806
 H         7.398623        1.172798       16.847319
 H         6.007968        5.110517       16.013159
 H         6.448026        6.366526       16.795790
 H         1.809750        1.510464       15.996314
 H         1.372866        2.780512       16.770521
 H         9.548196        8.624536       13.125096
 H         9.255594        9.898660       12.333344
 H        13.086027       10.801948        9.998552
 H        13.549613       12.099054       10.718566
 H        14.297731       13.702028       12.196145
 H        13.817977       12.388234       12.870074
 H        12.931496       10.756143       14.302816
 H        10.335428        7.101328       14.621603
 H         9.891119        8.383159       15.367926
 H        12.169330       12.085007       14.488176
 H         9.908866       12.472637       15.483370
 H        12.094989        8.686275       10.053173
 H        13.425293        8.685901       10.841505
 H        13.399522        8.683795       15.361092
 H        12.064247        8.619008       14.584619
 H         9.007584       10.820811       16.827971
 H         8.098719       12.075211       16.834145
 H        10.067048       12.469450       13.955053
 H        10.026296       12.064063       11.457737
 H        11.462667       12.391307        9.861992
 H        10.062464       12.384192        9.185524
 H         9.917583        8.393609       10.810142
 H         9.909097        8.438194        9.264921
 H        15.172609        8.484112       12.325889
 H        13.832362        8.438819       13.099167
 H        13.816566        8.515023       17.626026
 H        15.157697        8.513654       16.852551
 H        15.200142       12.468271       17.055929
 H        14.340831       13.750884       17.079035
 H         8.146189        8.705075       16.827227
 H         9.484933        8.717531       17.601946
 H         1.333688       10.049991       12.325475
 H         1.767233        8.793845       13.119916
 H         5.666832       12.092858        9.216295
 H         5.211076       10.816388        9.973662
 H         7.228896       12.274739       12.261573
 H         5.945121       12.334448       11.435369
 H         5.139059       10.809147       14.566693
 H         5.541975       12.058887       13.762975
 H         2.564143        7.193992       14.576179
 H         2.129726        8.451413       15.369687
 H         3.456036       12.382434       14.543768
 H         2.129188       12.420231       13.757007
 H         5.621025        8.708631        9.216888
 H         4.288053        8.727859       10.009184
 H         5.593749        8.724189       13.762620
 H         4.256796        8.710782       14.543193
 H         1.841807       12.138682       17.584141
 H         1.781628       12.135705       16.037664
 H         0.432386       12.159379       12.235080
 H         1.782420       12.135939       11.490500
 H         2.184337       12.387994        9.223625
 H         3.524551       12.377904        9.989764
 H         2.155877        8.461954       10.877744
 H         2.579705        7.195487       10.095630
 H         6.045290        8.487725       11.482093
 H         7.370078        8.471270       12.277059
 H         5.993074        8.471757       16.034960
 H         5.983040        8.488047       17.581013
 H         6.440227       13.683050       16.779533
 H         5.969111       12.424463       16.008146
 H         1.764384        8.771486       17.611277
 H         1.336478       10.034221       16.829256
383
 generated by VMD
 O         9.073618        1.746163       12.296578
 O        12.983123        4.528167       10.047171
 O        14.244401        5.404831       12.308885
 O        12.973320        4.532916       14.578365
 O        10.395537        0.959939       14.600691
 O        10.350650        5.337600       14.597334
 O        12.978261        1.793997       10.011078
 O        13.001668        1.804192       14.543670
 O         9.042048        4.483283       16.846046
 O         9.054008        4.487734       12.338720
 O        10.382814        5.360679       10.085264
 O        10.387411        0.868448       10.039423
 O        14.263914        0.893879       12.272223
 O        14.288268        0.972462       16.833164
 O        14.268757        5.451110       16.812059
 O         9.073063        1.767438       16.853184
 O         9.067607        9.068732        3.352508
 O        12.901916       11.780239        1.255630
 O        14.245067       12.708104        3.391513
 O        12.931924       11.787139        5.569939
 O        10.389898        8.152861        5.566756
 O        10.369993       12.740354        5.564165
 O        12.940514        9.073048        1.136555
 O        12.975222        9.039404        5.565608
 O         9.102117       11.807891        7.793514
 O         9.040011       11.796767        3.371327
 O        10.313089       12.727042        1.128822
 O        10.339583        8.157106        1.105228
 O        14.250351        8.125398        3.327922
 O        14.299022        8.151498        7.792196
 O        14.311003       12.730487        7.729348
 O         9.083710        9.058779        7.804155
 O         1.284245        9.051672        3.358210
 O         5.179919       11.820422        1.108350
 O         6.470258       12.724274        3.330884
 O         5.187766       11.784017        5.548979
 O         2.591886        8.159510        5.594062
 O         2.628040       12.725597        5.532300
 O         5.176839        9.084135        1.102852
 O         5.187084        9.041406        5.556656
 O         1.346912       11.818173        7.770644
 O         1.289469       11.796551        3.333235
 O         2.626805       12.748314        1.135828
 O         2.598842        8.164502        1.132866
 O         6.495903        8.153117        3.314092
 O         6.496424        8.129695        7.773162
 O         6.499648       12.714685        7.780269
 O         1.342136        9.085016        7.835223
 O         1.326231        1.759020        3.341492
 O         5.188791        4.502589        1.126019
 O         6.505105        5.426124        3.339223
 O         5.186776        4.537816        5.562921
 O         2.610325        0.850126        5.575625
 O         2.600342        5.423321        5.569952
 O         5.208707        1.766881        1.117823
 O         5.176123        1.801957        5.563156
 O         1.298082        4.498297        7.801913
 O         1.296728        4.485759        3.357180
 O         2.596734        5.416392        1.131991
 O         2.616532        0.880479        1.099938
 O         6.500914        0.863411        3.358317
 O         6.477934        0.861511        7.782939
 O         6.521410        5.393450        7.798197
 O         1.315145        1.758475        7.807034
 O         9.081349        1.795396        3.322556
 O        12.961457        4.526430        1.085695
 O        14.258116        5.397269        3.333230
 O        12.961849        4.492962        5.566358
 O        10.386868        0.874045        5.543429
 O        10.386009        5.407918        5.587622
 O        12.978492        1.776091        1.111098
 O        12.977000        1.765222        5.557865
 O         9.105699        4.467180        7.826628
 O         9.089658        4.539649        3.338188
 O        10.378615        5.420345        1.099266
 O        10.398690        0.851956        1.117147
 O        14.269821        0.858404        3.336731
 O        14.269829        0.856307        7.786929
 O        14.251564        5.414125        7.794177
 O         9.083155        1.731311        7.793960
 O         1.333587        1.770791       12.293740
 O         5.187612        4.518000       10.029719
 O         6.457910        5.406203       12.300137
 O         5.186073        4.509734       14.553930
 O         2.617426        0.875175       14.540798
 O         2.592657        5.413083       14.533043
 O         5.189277        1.776626       10.039196
 O         5.218344        1.766666       14.568248
 O         1.319466        4.553154       16.803827
 O         1.292579        4.493912       12.297339
 O         2.587266        5.407643       10.062132
 O         2.611914        0.846888       10.050017
 O         6.452348        0.851185       12.305095
 O         6.488353        0.858791       16.817738
 O         6.458484        5.403194       16.812927
 O         1.369069        1.818044       16.795399
 O         9.117419        8.958732       12.327268
 O        13.103305       11.761735        9.929343
 O        14.332055       12.743812       12.126753
 O        12.916607       11.680742       14.060156
 O        10.352684        8.064177       14.584997
 O        10.402249       12.858502       14.752680
 O        13.000882        9.008962       10.038470
 O        12.968557        8.941515       14.540946
 O         9.015516       11.783525       16.854240
 O         9.690760       11.698161       12.291973
 O        10.558720       12.719641        9.940090
 O        10.383910        8.088978       10.027058
 O        14.276447        8.132795       12.298881
 O        14.258263        8.168275       16.844105
 O        14.344066       12.819899       17.292622
 O         9.050721        9.033885       16.802017
 O         1.320729        9.085965       12.318616
 O         5.205843       11.781245       10.004290
 O         6.363295       12.650625       12.253380
 O         5.121341       11.773920       14.576454
 O         2.584085        8.156724       14.572304
 O         2.564769       12.745121       14.553084
 O         5.193656        9.057423       10.006561
 O         5.161900        9.043598       14.561044
 O         1.366903       11.780749       16.829325
 O         1.336452       11.821309       12.282589
 O         2.623073       12.712879       10.017524
 O         2.605369        8.157986       10.081122
 O         6.461276        8.160234       12.286558
 O         6.453584        8.143278       16.814405
 O         6.426400       12.720026       16.801666
 O         1.307259        9.068932       16.818949
 H         9.511908        1.423657       11.501993
 H         8.172161        1.411908       12.272739
 H        12.069937        4.834338       10.082101
 H        13.408720        4.843247       10.852702
 H        13.789163        5.124227       13.110238
 H        14.260477        6.368898       12.322591
 H        12.977898        3.568581       14.566631
 H        12.047742        4.798440       14.583122
 H         9.928515        1.216588       13.800098
 H        10.383200       14.598234       14.633702
 H         9.874642        5.011635       15.368736
 H         9.875128        5.023209       13.820813
 H        12.963067        2.757470       10.018420
 H        12.060675        1.503011       10.028224
 H        12.093646        1.483414       14.543897
 H        13.417215        1.463765       13.744905
 H         9.019476        3.519451       16.862930
 H         8.127986        4.786335       16.836800
 H         8.138692        4.785889       12.322380
 H         9.033912        3.524951       12.318551
 H        10.364220        6.324194       10.073377
 H         9.913760        5.082497       10.878733
 H        10.442883       14.511552        9.992485
 H         9.924007        1.151895        9.243497
 H        13.837957        1.229333       11.477552
 H        15.172216        1.211545       12.260553
 H        15.197256        1.282677       16.791840
 H        13.860538        1.242577       16.015484
 H        13.810064        5.150486       16.019875
 H        14.252392        6.415501       16.798151
 H         9.562280        1.431875       17.612698
 H         9.550016        1.482965       16.065331
 H         9.532207        8.765126        4.140024
 H         9.073096       10.032174        3.380580
 H        12.004152       12.114213        1.182320
 H        13.408461       12.162849        0.516736
 H        14.245592       13.669673        3.353018
 H        13.750184       12.400389        2.619048
 H        12.956992       10.824957        5.549080
 H        13.403236       12.096187        4.786108
 H        10.405435        7.189990        5.577443
 H        11.309106        8.442722        5.569503
 H        11.279975       12.422122        5.560761
 H        10.408392       13.702863        5.557067
 H        12.027281        8.771425        1.116998
 H        12.910570       10.038597        1.163627
 H        13.459059        8.724515        6.336771
 H        13.437827        8.704431        4.789475
 H         9.524516       12.150704        6.997673
 H         8.197788       12.138370        7.787262
 H         8.136772       12.130716        3.388377
 H         9.485712       12.145182        4.151208
 H         9.848672       12.383822        0.358411
 H         9.846649       12.395512        1.902753
 H        10.342009        7.194428        1.124021
 H         9.890833        8.454134        1.903783
 H        14.238085        7.162691        3.299091
 H        13.781881        8.438453        2.544588
 H        13.857259        8.466155        8.588940
 H        15.200507        8.489328        7.825687
 H        13.878798       12.363324        8.510602
 H        13.820741       12.394508        6.970730
 H         9.546253        8.762089        7.012989
 H         9.095160       10.021688        7.783559
 H         0.382843        8.710908        3.367102
 H         1.715423        8.733008        4.158254
 H         4.277380       12.160898        1.106068
 H         5.599294       12.143967        0.303054
 H         6.017884       12.432248        2.530881
 H         6.466724       13.687105        3.320176
 H         5.206225       10.820916        5.537529
 H         5.648580       12.083745        4.757518
 H         3.498775        8.484603        5.594991
 H         2.176061        8.494350        6.396661
 H         3.527652       12.379998        5.513499
 H         2.179580       12.387936        4.749192
 H         4.262319        8.780869        1.117853
 H         5.151444       10.047409        1.102118
 H         5.653216        8.713630        4.780239
 H         5.664999        8.708640        6.324816
 H         0.442146       12.149741        7.733998
 H         1.790132       12.140764        6.978568
 H         1.263678       10.834142        3.338290
 H         0.374008       12.098341        3.345137
 H         2.139029       12.437993        1.905792
 H         2.596210       13.710549        1.148691
 H         2.591667        7.201934        1.149326
 H         2.132713        8.456123        1.924128
 H         6.057329        8.491343        2.525689
 H         7.397297        8.494116        3.305763
 H         6.534686        7.166895        7.787136
 H         7.407131        8.443125        7.789444
 H         6.038279       12.409769        6.991716
 H         6.471520       13.677597        7.764882
 H         1.788228        8.790255        8.636514
 H         1.356545       10.048618        7.838400
 H         1.800713        1.443456        2.564368
 H         1.790188        1.417749        4.113863
 H         5.671262        4.840995        1.888217
 H         5.644211        4.828069        0.341856
 H         7.422608        5.131489        3.338721
 H         6.523687        6.389810        3.326539
 H         5.670717        4.844713        6.337590
 H         5.664249        4.862209        4.791288
 H         2.613334       14.488464        5.587646
 H         2.147947        1.141181        6.369359
 H         2.613653        6.386849        5.576984
 H         3.520145        5.136303        5.572755
 H         5.215853        2.730002        1.142761
 H         5.664313        1.466502        1.911602
 H         4.264191        1.491292        5.564014
 H         5.147426        2.764846        5.557865
 H         0.394467        4.831478        7.776913
 H         1.740192        4.832326        7.014382
 H         1.317436        3.522241        3.377330
 H         1.760314        4.793727        4.143608
 H         2.158022        5.070885        1.916838
 H         3.500484        5.084768        1.150769
 H         3.524561        1.200568        1.082478
 H         2.189049        1.212860        0.302548
 H         6.061419        1.201698        4.145959
 H         7.404489        1.196414        3.372303
 H         6.020490        1.188504        8.564857
 H         6.004409        1.211392        7.020641
 H         7.421677        5.052615        7.833579
 H         6.072062        5.076927        8.589610
 H         0.398345        1.461353        7.803974
 H         1.293082        2.721539        7.801085
 H         9.093536        2.758010        3.299139
 H         9.543921        1.488513        2.534539
 H        13.435946        4.861108        0.316361
 H        13.433582        4.842158        1.863356
 H        13.816133        5.069042        4.123966
 H        15.161150        5.061919        3.361354
 H        13.418505        4.797087        6.358589
 H        12.982588        3.529323        5.584134
 H        11.291500        1.205178        5.530669
 H         9.953141        1.212869        4.752807
 H        11.288396        5.069861        5.602535
 H         9.953387        5.071452        6.379928
 H        12.969935        2.738287        1.093905
 H        13.445805        1.498726        0.312194
 H        13.452295        1.438339        4.785252
 H        13.439272        1.427407        6.333100
 H         9.109905        3.503695        7.832613
 H         9.555259        4.753029        8.629053
 H         9.565412        4.867014        2.566592
 H         9.562161        4.854507        4.116573
 H        11.286017        5.097586        1.065270
 H         9.927907        5.081121        0.317976
 H        10.398825       14.489902        1.124053
 H        11.318767        1.137812        1.112926
 H        13.834616        1.190109        2.542901
 H        15.176603        1.180757        3.311211
 H        13.804328        1.154074        8.576324
 H        14.264108       14.494328        7.799881
 H        13.802046        5.128251        8.597631
 H        14.257579        6.377579        7.809495
 H         9.520399        1.412819        6.996921
 H         8.175630        1.409727        7.767871
 H         1.800014        1.430091       11.523099
 H         1.799256        1.442332       13.070651
 H         5.164496        3.554773       10.035182
 H         4.271241        4.814305       10.037935
 H         6.456447        6.368685       12.276682
 H         6.010985        5.112290       11.499015
 H         4.278880        4.832163       14.526670
 H         5.617665        4.834965       13.756124
 H         2.618309       14.513124       14.550016
 H         3.538016        1.156004       14.546408
 H         2.128459        5.094298       15.314209
 H         2.115613        5.078691       13.765897
 H         4.287319        1.437702       10.058141
 H         5.618532        1.453871       10.837802
 H         5.218178        2.730071       14.579847
 H         5.673436        1.478373       15.366855
 H         1.751416        4.871831       17.603056
 H         0.412503        4.878424       16.826075
 H         1.284213        3.529958       12.294587
 H         0.373985        4.784362       12.302188
 H         2.118542        5.071072       10.833897
 H         2.116306        5.084036        9.287569
 H         2.151922        1.152033        9.260852
 H         2.605844       14.485909       10.018353
 H         6.409106       14.495975       12.316114
 H         6.017688        1.157238       13.109912
 H         6.056008        1.186475       17.613806
 H         7.398623        1.172798       16.847319
 H         6.007968        5.110517       16.013159
 H         6.448026        6.366526       16.795790
 H         1.809750        1.510464       15.996314
 H         1.372866        2.780512       16.770521
 H         9.548196        8.624536       13.125096
 H         9.255594        9.898660       12.333344
 H        13.086027       10.801948        9.998552
 H        13.549613       12.099054       10.718566
 H        14.297731       13.702028       12.196145
 H        13.817977       12.388234       12.870074
 H        12.931496       10.756143       14.302816
 H        10.335428        7.101328       14.621603
 H         9.891119        8.383159       15.367926
 H        12.169330       12.085007       14.488176
 H         9.908866       12.472637       15.483370
 H        12.094989        8.686275       10.053173
 H        13.425293        8.685901       10.841505
 H        13.399522        8.683795       15.361092
 H        12.064247        8.619008       14.584619
 H         9.007584       10.820811       16.827971
 H         8.098719       12.075211       16.834145
 H        10.067048       12.469450       13.955053
 H        10.026296       12.064063       11.457737
 H        11.462667       12.391307        9.861992
 H        10.062464       12.384192        9.185524
 H         9.917583        8.393609       10.810142
 H         9.909097        8.438194        9.264921
 H        15.172609        8.484112       12.325889
 H        13.832362        8.438819       13.099167
 H        13.816566        8.515023       17.626026
 H        15.157697        8.513654       16.852551
 H        15.200142       12.468271       17.055929
 H        14.340831       13.750884       17.079035
 H         8.146189        8.705075       16.827227
 H         9.484933        8.717531       17.601946
 H         1.333688       10.049991       12.325475
 H         1.767233        8.793845       13.119916
 H         5.666832       12.092858        9.216295
 H         5.211076       10.816388        9.973662
 H         7.228896       12.274739       12.261573
 H         5.945121       12.334448       11.435369
 H         5.139059       10.809147       14.566693
 H         5.541975       12.058887       13.762975
 H         2.564143        7.193992       14.576179
 H         2.129726        8.451413       15.369687
 H         3.456036       12.382434       14.543768
 H         2.129188       12.420231       13.757007
 H         5.621025        8.708631        9.216888
 H         4.288053        8.727859       10.009184
 H         5.593749        8.724189       13.762620
 H         4.256796        8.710782       14.543193
 H         1.841807       12.138682       17.584141
 H         1.781628       12.135705       16.037664
 H         0.432386       12.159379       12.235080
 H         1.782420       12.135939       11.490500
 H         2.184337       12.387994        9.223625
 H         3.524551       12.377904        9.989764
 H         2.155877        8.461954       10.877744
 H         2.579705        7.195487       10.095630
 H         6.045290        8.487725       11.482093
 H         7.370078        8.471270       12.277059
 H         5.993074        8.471757       16.034960
 H         5.983040        8.488047       17.581013
 H         6.440227       13.683050       16.779533
 H         5.969111       12.424463       16.008146
 H         1.764384        8.771486       17.611277
 H         1.336478       10.034221       16.829256
