383
 generated by VMD
 O         9.107496        1.778260       12.334202
 O        12.942141        4.500232       10.079087
 O        14.250731        5.431086       12.304523
 O        12.952039        4.499127       14.521554
 O        10.376751        0.872141       14.574406
 O        10.372972        5.424872       14.543103
 O        12.981458        1.757656       10.090388
 O        12.959311        1.773720       14.538456
 O         9.102571        4.510247       16.788975
 O         9.081830        4.510859       12.316232
 O        10.354334        5.400355       10.067655
 O        10.396388        0.850744       10.096392
 O        14.282927        0.839136       12.318708
 O        14.233665        0.876743       16.793276
 O        14.247742        5.378585       16.781595
 O         9.117083        1.782715       16.823587
 O         9.092916        9.083117        3.358344
 O        12.946159       11.809108        1.110965
 O        14.265302       12.763728        3.344203
 O        12.954704       11.822997        5.567828
 O        10.333026        8.143044        5.614716
 O        10.361960       12.719704        5.562696
 O        12.925525        9.063335        1.077648
 O        12.893071        9.072117        5.585130
 O         9.069490       11.839650        7.810418
 O         9.075966       11.821606        3.323534
 O        10.362993       12.721750        1.083680
 O        10.353207        8.153130        1.107846
 O        14.128885        8.105774        3.305958
 O        14.212324        8.164167        7.838552
 O        14.262380       12.692667        7.838477
 O         9.088290        9.092555        7.856616
 O         1.149593        9.185384        3.784979
 O         5.247180       11.814675        1.067005
 O         6.489176       12.713055        3.344787
 O         5.216447       11.807470        5.595533
 O         2.641273        8.080304        5.730350
 O         2.646950       12.783059        5.622659
 O         5.263584        9.060760        1.091566
 O         5.227678        9.058259        5.638473
 O         1.327154       11.807326        7.837161
 O         1.383180       11.940085        3.374453
 O         2.655720       12.758885        1.077908
 O         2.689860        8.065310        1.005856
 O         6.511694        8.179093        3.367069
 O         6.519882        8.141284        7.865767
 O         6.476652       12.727885        7.841855
 O         1.264477        9.061718        7.852934
 O         1.333651        1.750258        3.323833
 O         5.227727        4.520812        1.089986
 O         6.512222        5.439686        3.344518
 O         5.239144        4.506922        5.598218
 O         2.618426        0.901287        5.603165
 O         2.618992        5.345369        5.600579
 O         5.233198        1.783274        1.126804
 O         5.202610        1.775797        5.639762
 O         1.302360        4.488795        7.856507
 O         1.301045        4.480154        3.328116
 O         2.614674        5.368227        1.082970
 O         2.645610        0.879504        1.082215
 O         6.462438        0.843651        3.391880
 O         6.518701        0.857536        7.863340
 O         6.513896        5.406972        7.859744
 O         1.310134        1.754863        7.855518
 O         9.041498        1.746816        3.375962
 O        12.927949        4.491451        1.085736
 O        14.204037        5.352500        3.352310
 O        12.942178        4.463586        5.621878
 O        10.373336        0.849651        5.607233
 O        10.364539        5.391438        5.587502
 O        12.941245        1.770213        1.084191
 O        12.966270        1.723950        5.604499
 O         9.082441        4.477517        7.826573
 O         9.077672        4.485898        3.333751
 O        10.353964        5.413425        1.103394
 O        10.350399        0.860243        1.139495
 O        14.261532        0.893152        3.327970
 O        14.262453        0.828976        7.842803
 O        14.254510        5.412357        7.848982
 O         9.103342        1.738569        7.845761
 O         1.334198        1.744003       12.302094
 O         5.200161        4.495040       10.091118
 O         6.517048        5.427474       12.311274
 O         5.247603        4.481344       14.556664
 O         2.630609        0.881605       14.541003
 O         2.658925        5.252917       14.544580
 O         5.217521        1.753267       10.089727
 O         5.244188        1.759612       14.557165
 O         1.301168        4.481680       16.818394
 O         1.282778        4.456672       12.294028
 O         2.615833        5.394607       10.091330
 O         2.637491        0.846895       10.066928
 O         6.528986        0.853724       12.321105
 O         6.525235        0.890520       16.817797
 O         6.524270        5.407604       16.789652
 O         1.309997        1.736651       16.792343
 O         9.104275        9.067064       12.301807
 O        12.967596       11.777467       10.082840
 O        14.251626       12.709873       12.322302
 O        12.945075       11.815822       14.563391
 O        10.390776        8.154305       14.537668
 O        10.353278       12.738533       14.536325
 O        12.942535        9.042033       10.088229
 O        12.954039        9.067410       14.531516
 O         9.083485       11.821177       16.776848
 O         9.103890       11.800410       12.284831
 O        10.383986       12.708918       10.040619
 O        10.364165        8.134610       10.078785
 O        14.257554        8.152608       12.300796
 O        14.167955        8.148475       16.779312
 O        14.217955       12.749885       16.798176
 O         9.127151        9.077033       16.788202
 O         1.261580        9.067428       12.180974
 O         5.204155       11.777713       10.077694
 O         6.517218       12.718349       12.287127
 O         5.205166       11.856721       14.541340
 O         3.058695        7.863942       13.658195
 O         2.613608       12.747765       14.512064
 O         5.191168        9.047613       10.086324
 O         5.378843        9.113616       14.536768
 O         1.311849       11.927952       16.747646
 O         1.331986       11.835439       12.284765
 O         2.634633       12.714850       10.060946
 O         2.616482        8.125905       10.021458
 O         6.549771        8.160196       12.294465
 O         6.574076        8.151956       16.816084
 O         6.509115       12.751991       16.760529
 O         1.092150        9.137525       16.810186
 H         9.109518        2.741811       12.348190
 H         9.557573        1.486883       13.134931
 H        12.022942        4.787214       10.072448
 H        12.936213        3.537322       10.085300
 H        13.787498        5.136207       11.514040
 H        14.253097        6.395678       12.287542
 H        13.393907        4.848453       13.739277
 H        12.050013        4.836071       14.504779
 H         9.955944        1.194902       15.378987
 H        11.285295        1.192755       14.584634
 H         9.910995        5.129735       13.750739
 H        10.370773        6.388620       14.525334
 H        13.459884        1.426130       10.858370
 H        13.442330        1.424757        9.312877
 H        12.969831        2.737014       14.501863
 H        13.425194        1.460553       13.755931
 H         9.537195        4.843676       15.996273
 H         8.194549        4.833318       16.766129
 H         9.512204        4.832644       11.516509
 H         8.175856        4.841055       12.293933
 H        10.345039        6.363796       10.047277
 H         9.904945        5.100051        9.270332
 H         9.960546        1.185611       10.887352
 H        11.302456        1.177128       10.118365
 H        14.290747       14.477459       12.323636
 H        15.202447        1.126587       12.317638
 H        13.770457        1.209931       16.017496
 H        13.763687        1.211476       17.565104
 H        13.769793        5.058966       17.553020
 H        13.779136        5.055089       16.005840
 H         9.129026        2.746310       16.832932
 H         9.557044        1.485886       17.627653
 H         9.550774        8.739015        2.583552
 H         9.554054        8.742344        4.132336
 H        13.411002       12.106242        1.899192
 H        12.958596       10.845877        1.121675
 H        14.262323       13.727909        3.328246
 H        15.189240       12.500731        3.343586
 H        13.430618       12.168064        4.804562
 H        13.423954       12.134603        6.348891
 H        11.246652        8.449781        5.613372
 H        10.363244        7.180455        5.612590
 H        11.266989       12.389978        5.547643
 H         9.933478       12.394802        4.762797
 H        13.349346        8.727458        0.277153
 H        12.018217        8.737782        1.067134
 H        12.921921       10.034866        5.550846
 H        13.314068        8.755479        4.781289
 H         9.496426       12.163666        7.009920
 H         8.161374       12.160830        7.797368
 H         9.530972       12.114655        2.526091
 H         9.094701       10.858339        3.315416
 H        11.267753       12.390840        1.073218
 H         9.935668       12.398849        0.282766
 H         9.907804        8.461246        0.310513
 H        10.337155        7.190264        1.083693
 H        13.722449        8.448483        2.498161
 H        15.014224        8.445835        3.338644
 H        13.736591        8.490244        7.068894
 H        13.744012        8.487127        8.617111
 H        15.168440       12.366838        7.858387
 H        13.827473       12.355817        8.629148
 H         9.089534       10.054815        7.817681
 H         9.530101        8.779961        7.059250
 H         1.689328        8.773301        4.481648
 H         2.102800        8.363147        1.681310
 H         5.694292       12.120948        0.270602
 H         5.262327       10.852755        1.044564
 H         7.398249       12.394155        3.319662
 H         6.065369       12.393802        2.540581
 H         5.221572       10.844452        5.590875
 H         5.670500       12.091798        4.794675
 H         2.623461        7.116812        5.711541
 H         2.180438        8.366288        6.528233
 H         3.558412       12.472016        5.614811
 H         2.674117       13.747221        5.632137
 H         5.682447        8.749776        1.901810
 H         4.368443        8.712917        1.092055
 H         4.333302        8.708967        5.679049
 H         5.680369        8.730778        6.424048
 H         1.792862       12.154883        7.069849
 H         1.800240       12.130813        8.612391
 H         1.357665       10.994761        3.467144
 H         1.834983       12.264957        4.164169
 H         3.554276       12.412979        1.083958
 H         2.233565       12.448749        1.883792
 H         1.725021        8.788646       -0.514980
 H         2.656935        7.097614        1.033723
 H         6.079165        8.497876        4.165886
 H         7.415778        8.512511        3.384828
 H         6.553602        7.178416        7.867664
 H         7.430404        8.455192        7.871662
 H         6.014713       12.381776        8.613472
 H         6.012634       12.396831        7.065097
 H         1.266041       10.024946        7.842295
 H         0.343517        8.778273        7.850838
 H         1.800937        1.436451        4.105055
 H         1.814857        1.426990        2.554064
 H         5.218976        3.557387        1.110656
 H         4.306219        4.799935        1.089527
 H         6.051555        5.148363        2.550674
 H         6.507340        6.403059        3.331785
 H         5.697959        4.845683        6.374424
 H         5.702052        4.847797        4.825631
 H         3.520331        1.238893        5.641504
 H         2.170226        1.218401        6.395082
 H         3.528489        5.029398        5.573446
 H         2.185637        5.032608        4.799930
 H         4.326060        1.458156        1.121379
 H         5.642427        1.446172        1.930772
 H         5.239026        2.738871        5.640134
 H         5.668544        1.478399        6.428604
 H         1.739650        4.788304        7.053154
 H         0.401466        4.829239        7.831781
 H         1.288497        3.516209        3.326471
 H         0.382890        4.767762        3.340470
 H         2.135051        5.043409        0.310332
 H         2.140227        5.047661        1.857965
 H         2.175151        1.171907        0.293875
 H         2.645587       14.517936        1.057546
 H         6.009813        1.139483        4.188989
 H         6.450775       14.482151        3.399078
 H         7.439575        1.141079        7.854509
 H         6.522243       14.496048        7.854328
 H         7.411887        5.058232        7.875622
 H         6.069625        5.077755        8.648605
 H         1.781442        1.454919        8.640586
 H         1.305933        2.717917        7.883665
 H         9.484681        1.429179        4.169579
 H         8.137225        1.415010        3.407319
 H        12.028396        4.835667        1.112071
 H        13.364968        4.801114        1.886345
 H        13.760607        5.054652        4.154110
 H        14.164745        6.312697        3.357221
 H        12.965818        3.500609        5.644233
 H        13.405285        4.773005        6.407442
 H        10.392971       14.488450        5.585757
 H        11.291296        1.142918        5.595043
 H        11.267236        5.054665        5.578567
 H         9.937863        5.068869        4.786558
 H        12.029153        1.462661        1.113051
 H        12.907984        2.734007        1.084571
 H        13.441553        1.422230        4.823194
 H        13.441599        1.386272        6.371809
 H         9.532893        4.776391        7.028705
 H         9.103509        3.514486        7.812195
 H         9.037519        3.523669        3.350292
 H         8.167840        4.803310        3.343383
 H         9.895921        5.083618        0.322861
 H         9.883463        5.070535        1.871353
 H        10.341343       14.499030        1.137471
 H         9.884683        1.142400        1.934024
 H        15.171436        1.207151        3.296633
 H        13.821312        1.220103        2.536058
 H        15.177757        1.129917        7.848313
 H        14.285774       14.467752        7.846715
 H        14.230317        6.374793        7.861269
 H        13.792346        5.114149        8.639879
 H         9.572764        1.406615        7.071619
 H         9.578662        1.420607        8.620446
 H         1.791739        1.447439       11.508232
 H         1.315370        2.708061       12.269887
 H         5.180652        3.532407       10.095835
 H         4.283456        4.792729       10.091149
 H         6.502356        6.391274       12.291646
 H         6.042743        5.125389       11.529599
 H         4.324987        4.766246       14.533121
 H         5.669397        4.832894       13.765880
 H         3.536465        1.206493       14.531856
 H         2.204897        1.209615       13.741004
 H         2.165545        5.013356       15.333410
 H         2.151502        4.944280       13.789023
 H         5.691229        1.429197       10.863200
 H         5.693649        1.430807        9.316406
 H         5.261813        2.723878       14.568904
 H         5.690115        1.468797       15.359581
 H         1.272988        3.519447       16.808826
 H         0.387427        4.786964       16.801876
 H         0.389451        4.815484       12.281622
 H         1.737141        4.817043       11.524817
 H         2.613376        6.359044       10.069985
 H         2.153117        5.102746        9.299454
 H         2.657107       14.485257       10.063833
 H         3.554759        1.141138       10.073788
 H         6.091890        1.175251       13.118045
 H         7.429929        1.193422       12.344968
 H         7.431720        1.215356       16.838280
 H         6.095127        1.212137       17.617102
 H         6.049225        5.080006       16.017496
 H         6.054712        5.080273       17.564541
 H         0.405271        1.408206       16.769962
 H         1.746275        1.425434       15.992244
 H         9.536450        8.736654       13.096903
 H         8.197818        8.735482       12.313957
 H        12.055393       12.085103       10.064215
 H        12.934866       10.814410       10.087849
 H        13.786133       12.370554       11.550645
 H        13.783612       12.379625       13.096685
 H        12.041939       12.147955       14.577724
 H        13.376930       12.152215       15.356487
 H         9.965982        8.490692       15.334189
 H        11.297293        8.484735       14.547404
 H         9.912635       12.436091       13.735158
 H        10.343728       13.701290       14.520448
 H        12.041477        8.702561       10.113696
 H        13.391153        8.716445       10.878076
 H        12.966684       10.029235       14.563951
 H        13.396311        8.755468       15.331358
 H         8.179950       12.155628       16.757467
 H         9.512453       12.150308       15.979404
 H         9.558682       12.087783       11.486137
 H         9.114983       10.836704       12.281693
 H         9.918445       12.431905        9.243790
 H        10.379160       13.671764       10.045113
 H         9.908837        8.492060        9.308773
 H         9.899647        8.466436       10.856014
 H        13.837129        8.488043       13.099602
 H        15.164921        8.486573       12.298910
 H        15.077889        8.485935       16.790398
 H        14.225847        7.189200       16.771507
 H        14.197096       13.712870       16.821564
 H        13.776093       12.439883       17.594881
 H         8.213950        8.766764       16.791405
 H         9.091953       10.039434       16.783573
 H         1.871317        8.686351       12.833745
 H         1.310701       10.022740       12.261662
 H         5.671911       12.084320       10.861888
 H         5.210489       10.814111       10.103213
 H         6.546763       13.681026       12.293324
 H         7.430149       12.411945       12.291892
 H         4.291607       12.161161       14.508377
 H         5.637020       12.167195       13.739416
 H         2.904261        7.032148       14.100080
 H         3.806763        8.286300       14.074868
 H         2.614127       13.710285       14.535173
 H         2.151130       12.456956       15.307522
 H         4.287371        8.712442       10.058250
 H         5.636364        8.716882        9.299537
 H         5.782482        8.809624       15.353876
 H         5.310709       10.070951       14.584832
 H         1.748354       12.227837       17.549105
 H         0.400583       12.233014       16.792517
 H         0.422820       12.147367       12.317089
 H         1.764677       12.161453       13.081999
 H         2.188462       12.393349       10.853513
 H         3.532633       12.366829       10.087425
 H         2.141971        8.453854        9.251328
 H         2.134291        8.469937       10.783962
 H         6.046103        8.476286       11.536830
 H         6.114223        8.508647       13.082247
 H         6.542770        7.189461       16.816536
 H         6.108771        8.443974       17.606941
 H         6.037520       12.470700       15.967987
 H         6.500017       13.714869       16.764660
 H         1.221207       10.085045       16.775270
383
 generated by VMD
 O         9.107496        1.778260       12.334202
 O        12.942141        4.500232       10.079087
 O        14.250731        5.431086       12.304523
 O        12.952039        4.499127       14.521554
 O        10.376751        0.872141       14.574406
 O        10.372972        5.424872       14.543103
 O        12.981458        1.757656       10.090388
 O        12.959311        1.773720       14.538456
 O         9.102571        4.510247       16.788975
 O         9.081830        4.510859       12.316232
 O        10.354334        5.400355       10.067655
 O        10.396388        0.850744       10.096392
 O        14.282927        0.839136       12.318708
 O        14.233665        0.876743       16.793276
 O        14.247742        5.378585       16.781595
 O         9.117083        1.782715       16.823587
 O         9.092916        9.083117        3.358344
 O        12.946159       11.809108        1.110965
 O        14.265302       12.763728        3.344203
 O        12.954704       11.822997        5.567828
 O        10.333026        8.143044        5.614716
 O        10.361960       12.719704        5.562696
 O        12.925525        9.063335        1.077648
 O        12.893071        9.072117        5.585130
 O         9.069490       11.839650        7.810418
 O         9.075966       11.821606        3.323534
 O        10.362993       12.721750        1.083680
 O        10.353207        8.153130        1.107846
 O        14.128885        8.105774        3.305958
 O        14.212324        8.164167        7.838552
 O        14.262380       12.692667        7.838477
 O         9.088290        9.092555        7.856616
 O         1.149593        9.185384        3.784979
 O         5.247180       11.814675        1.067005
 O         6.489176       12.713055        3.344787
 O         5.216447       11.807470        5.595533
 O         2.641273        8.080304        5.730350
 O         2.646950       12.783059        5.622659
 O         5.263584        9.060760        1.091566
 O         5.227678        9.058259        5.638473
 O         1.327154       11.807326        7.837161
 O         1.383180       11.940085        3.374453
 O         2.655720       12.758885        1.077908
 O         2.689860        8.065310        1.005856
 O         6.511694        8.179093        3.367069
 O         6.519882        8.141284        7.865767
 O         6.476652       12.727885        7.841855
 O         1.264477        9.061718        7.852934
 O         1.333651        1.750258        3.323833
 O         5.227727        4.520812        1.089986
 O         6.512222        5.439686        3.344518
 O         5.239144        4.506922        5.598218
 O         2.618426        0.901287        5.603165
 O         2.618992        5.345369        5.600579
 O         5.233198        1.783274        1.126804
 O         5.202610        1.775797        5.639762
 O         1.302360        4.488795        7.856507
 O         1.301045        4.480154        3.328116
 O         2.614674        5.368227        1.082970
 O         2.645610        0.879504        1.082215
 O         6.462438        0.843651        3.391880
 O         6.518701        0.857536        7.863340
 O         6.513896        5.406972        7.859744
 O         1.310134        1.754863        7.855518
 O         9.041498        1.746816        3.375962
 O        12.927949        4.491451        1.085736
 O        14.204037        5.352500        3.352310
 O        12.942178        4.463586        5.621878
 O        10.373336        0.849651        5.607233
 O        10.364539        5.391438        5.587502
 O        12.941245        1.770213        1.084191
 O        12.966270        1.723950        5.604499
 O         9.082441        4.477517        7.826573
 O         9.077672        4.485898        3.333751
 O        10.353964        5.413425        1.103394
 O        10.350399        0.860243        1.139495
 O        14.261532        0.893152        3.327970
 O        14.262453        0.828976        7.842803
 O        14.254510        5.412357        7.848982
 O         9.103342        1.738569        7.845761
 O         1.334198        1.744003       12.302094
 O         5.200161        4.495040       10.091118
 O         6.517048        5.427474       12.311274
 O         5.247603        4.481344       14.556664
 O         2.630609        0.881605       14.541003
 O         2.658925        5.252917       14.544580
 O         5.217521        1.753267       10.089727
 O         5.244188        1.759612       14.557165
 O         1.301168        4.481680       16.818394
 O         1.282778        4.456672       12.294028
 O         2.615833        5.394607       10.091330
 O         2.637491        0.846895       10.066928
 O         6.528986        0.853724       12.321105
 O         6.525235        0.890520       16.817797
 O         6.524270        5.407604       16.789652
 O         1.309997        1.736651       16.792343
 O         9.104275        9.067064       12.301807
 O        12.967596       11.777467       10.082840
 O        14.251626       12.709873       12.322302
 O        12.945075       11.815822       14.563391
 O        10.390776        8.154305       14.537668
 O        10.353278       12.738533       14.536325
 O        12.942535        9.042033       10.088229
 O        12.954039        9.067410       14.531516
 O         9.083485       11.821177       16.776848
 O         9.103890       11.800410       12.284831
 O        10.383986       12.708918       10.040619
 O        10.364165        8.134610       10.078785
 O        14.257554        8.152608       12.300796
 O        14.167955        8.148475       16.779312
 O        14.217955       12.749885       16.798176
 O         9.127151        9.077033       16.788202
 O         1.261580        9.067428       12.180974
 O         5.204155       11.777713       10.077694
 O         6.517218       12.718349       12.287127
 O         5.205166       11.856721       14.541340
 O         3.058695        7.863942       13.658195
 O         2.613608       12.747765       14.512064
 O         5.191168        9.047613       10.086324
 O         5.378843        9.113616       14.536768
 O         1.311849       11.927952       16.747646
 O         1.331986       11.835439       12.284765
 O         2.634633       12.714850       10.060946
 O         2.616482        8.125905       10.021458
 O         6.549771        8.160196       12.294465
 O         6.574076        8.151956       16.816084
 O         6.509115       12.751991       16.760529
 O         1.092150        9.137525       16.810186
 H         9.109518        2.741811       12.348190
 H         9.557573        1.486883       13.134931
 H        12.022942        4.787214       10.072448
 H        12.936213        3.537322       10.085300
 H        13.787498        5.136207       11.514040
 H        14.253097        6.395678       12.287542
 H        13.393907        4.848453       13.739277
 H        12.050013        4.836071       14.504779
 H         9.955944        1.194902       15.378987
 H        11.285295        1.192755       14.584634
 H         9.910995        5.129735       13.750739
 H        10.370773        6.388620       14.525334
 H        13.459884        1.426130       10.858370
 H        13.442330        1.424757        9.312877
 H        12.969831        2.737014       14.501863
 H        13.425194        1.460553       13.755931
 H         9.537195        4.843676       15.996273
 H         8.194549        4.833318       16.766129
 H         9.512204        4.832644       11.516509
 H         8.175856        4.841055       12.293933
 H        10.345039        6.363796       10.047277
 H         9.904945        5.100051        9.270332
 H         9.960546        1.185611       10.887352
 H        11.302456        1.177128       10.118365
 H        14.290747       14.477459       12.323636
 H        15.202447        1.126587       12.317638
 H        13.770457        1.209931       16.017496
 H        13.763687        1.211476       17.565104
 H        13.769793        5.058966       17.553020
 H        13.779136        5.055089       16.005840
 H         9.129026        2.746310       16.832932
 H         9.557044        1.485886       17.627653
 H         9.550774        8.739015        2.583552
 H         9.554054        8.742344        4.132336
 H        13.411002       12.106242        1.899192
 H        12.958596       10.845877        1.121675
 H        14.262323       13.727909        3.328246
 H        15.189240       12.500731        3.343586
 H        13.430618       12.168064        4.804562
 H        13.423954       12.134603        6.348891
 H        11.246652        8.449781        5.613372
 H        10.363244        7.180455        5.612590
 H        11.266989       12.389978        5.547643
 H         9.933478       12.394802        4.762797
 H        13.349346        8.727458        0.277153
 H        12.018217        8.737782        1.067134
 H        12.921921       10.034866        5.550846
 H        13.314068        8.755479        4.781289
 H         9.496426       12.163666        7.009920
 H         8.161374       12.160830        7.797368
 H         9.530972       12.114655        2.526091
 H         9.094701       10.858339        3.315416
 H        11.267753       12.390840        1.073218
 H         9.935668       12.398849        0.282766
 H         9.907804        8.461246        0.310513
 H        10.337155        7.190264        1.083693
 H        13.722449        8.448483        2.498161
 H        15.014224        8.445835        3.338644
 H        13.736591        8.490244        7.068894
 H        13.744012        8.487127        8.617111
 H        15.168440       12.366838        7.858387
 H        13.827473       12.355817        8.629148
 H         9.089534       10.054815        7.817681
 H         9.530101        8.779961        7.059250
 H         1.689328        8.773301        4.481648
 H         2.102800        8.363147        1.681310
 H         5.694292       12.120948        0.270602
 H         5.262327       10.852755        1.044564
 H         7.398249       12.394155        3.319662
 H         6.065369       12.393802        2.540581
 H         5.221572       10.844452        5.590875
 H         5.670500       12.091798        4.794675
 H         2.623461        7.116812        5.711541
 H         2.180438        8.366288        6.528233
 H         3.558412       12.472016        5.614811
 H         2.674117       13.747221        5.632137
 H         5.682447        8.749776        1.901810
 H         4.368443        8.712917        1.092055
 H         4.333302        8.708967        5.679049
 H         5.680369        8.730778        6.424048
 H         1.792862       12.154883        7.069849
 H         1.800240       12.130813        8.612391
 H         1.357665       10.994761        3.467144
 H         1.834983       12.264957        4.164169
 H         3.554276       12.412979        1.083958
 H         2.233565       12.448749        1.883792
 H         2.656935        7.097614        1.033723
 H         6.079165        8.497876        4.165886
 H         7.415778        8.512511        3.384828
 H         6.553602        7.178416        7.867664
 H         7.430404        8.455192        7.871662
 H         6.014713       12.381776        8.613472
 H         6.012634       12.396831        7.065097
 H         1.266041       10.024946        7.842295
 H         0.343517        8.778273        7.850838
 H         1.800937        1.436451        4.105055
 H         1.814857        1.426990        2.554064
 H         5.218976        3.557387        1.110656
 H         4.306219        4.799935        1.089527
 H         6.051555        5.148363        2.550674
 H         6.507340        6.403059        3.331785
 H         5.697959        4.845683        6.374424
 H         5.702052        4.847797        4.825631
 H         3.520331        1.238893        5.641504
 H         2.170226        1.218401        6.395082
 H         3.528489        5.029398        5.573446
 H         2.185637        5.032608        4.799930
 H         4.326060        1.458156        1.121379
 H         5.642427        1.446172        1.930772
 H         5.239026        2.738871        5.640134
 H         5.668544        1.478399        6.428604
 H         1.739650        4.788304        7.053154
 H         0.401466        4.829239        7.831781
 H         1.288497        3.516209        3.326471
 H         0.382890        4.767762        3.340470
 H         2.135051        5.043409        0.310332
 H         2.140227        5.047661        1.857965
 H         2.175151        1.171907        0.293875
 H         2.645587       14.517936        1.057546
 H         6.009813        1.139483        4.188989
 H         6.450775       14.482151        3.399078
 H         7.439575        1.141079        7.854509
 H         6.522243       14.496048        7.854328
 H         7.411887        5.058232        7.875622
 H         6.069625        5.077755        8.648605
 H         1.781442        1.454919        8.640586
 H         1.305933        2.717917        7.883665
 H         9.484681        1.429179        4.169579
 H         8.137225        1.415010        3.407319
 H        12.028396        4.835667        1.112071
 H        13.364968        4.801114        1.886345
 H        13.760607        5.054652        4.154110
 H        14.164745        6.312697        3.357221
 H        12.965818        3.500609        5.644233
 H        13.405285        4.773005        6.407442
 H        10.392971       14.488450        5.585757
 H        11.291296        1.142918        5.595043
 H        11.267236        5.054665        5.578567
 H         9.937863        5.068869        4.786558
 H        12.029153        1.462661        1.113051
 H        12.907984        2.734007        1.084571
 H        13.441553        1.422230        4.823194
 H        13.441599        1.386272        6.371809
 H         9.532893        4.776391        7.028705
 H         9.103509        3.514486        7.812195
 H         9.037519        3.523669        3.350292
 H         8.167840        4.803310        3.343383
 H         9.895921        5.083618        0.322861
 H         9.883463        5.070535        1.871353
 H        10.341343       14.499030        1.137471
 H         9.884683        1.142400        1.934024
 H        15.171436        1.207151        3.296633
 H        13.821312        1.220103        2.536058
 H        15.177757        1.129917        7.848313
 H        14.285774       14.467752        7.846715
 H        14.230317        6.374793        7.861269
 H        13.792346        5.114149        8.639879
 H         9.572764        1.406615        7.071619
 H         9.578662        1.420607        8.620446
 H         1.791739        1.447439       11.508232
 H         1.315370        2.708061       12.269887
 H         5.180652        3.532407       10.095835
 H         4.283456        4.792729       10.091149
 H         6.502356        6.391274       12.291646
 H         6.042743        5.125389       11.529599
 H         4.324987        4.766246       14.533121
 H         5.669397        4.832894       13.765880
 H         3.536465        1.206493       14.531856
 H         2.204897        1.209615       13.741004
 H         2.165545        5.013356       15.333410
 H         2.151502        4.944280       13.789023
 H         5.691229        1.429197       10.863200
 H         5.693649        1.430807        9.316406
 H         5.261813        2.723878       14.568904
 H         5.690115        1.468797       15.359581
 H         1.272988        3.519447       16.808826
 H         0.387427        4.786964       16.801876
 H         0.389451        4.815484       12.281622
 H         1.737141        4.817043       11.524817
 H         2.613376        6.359044       10.069985
 H         2.153117        5.102746        9.299454
 H         2.657107       14.485257       10.063833
 H         3.554759        1.141138       10.073788
 H         6.091890        1.175251       13.118045
 H         7.429929        1.193422       12.344968
 H         7.431720        1.215356       16.838280
 H         6.095127        1.212137       17.617102
 H         6.049225        5.080006       16.017496
 H         6.054712        5.080273       17.564541
 H         0.405271        1.408206       16.769962
 H         1.746275        1.425434       15.992244
 H         9.536450        8.736654       13.096903
 H         8.197818        8.735482       12.313957
 H        12.055393       12.085103       10.064215
 H        12.934866       10.814410       10.087849
 H        13.786133       12.370554       11.550645
 H        13.783612       12.379625       13.096685
 H        12.041939       12.147955       14.577724
 H        13.376930       12.152215       15.356487
 H         9.965982        8.490692       15.334189
 H        11.297293        8.484735       14.547404
 H         9.912635       12.436091       13.735158
 H        10.343728       13.701290       14.520448
 H        12.041477        8.702561       10.113696
 H        13.391153        8.716445       10.878076
 H        12.966684       10.029235       14.563951
 H        13.396311        8.755468       15.331358
 H         8.179950       12.155628       16.757467
 H         9.512453       12.150308       15.979404
 H         9.558682       12.087783       11.486137
 H         9.114983       10.836704       12.281693
 H         9.918445       12.431905        9.243790
 H        10.379160       13.671764       10.045113
 H         9.908837        8.492060        9.308773
 H         9.899647        8.466436       10.856014
 H        13.837129        8.488043       13.099602
 H        15.164921        8.486573       12.298910
 H        15.077889        8.485935       16.790398
 H        14.225847        7.189200       16.771507
 H        14.197096       13.712870       16.821564
 H        13.776093       12.439883       17.594881
 H         8.213950        8.766764       16.791405
 H         9.091953       10.039434       16.783573
 H         1.871317        8.686351       12.833745
 H         1.310701       10.022740       12.261662
 H         5.671911       12.084320       10.861888
 H         5.210489       10.814111       10.103213
 H         6.546763       13.681026       12.293324
 H         7.430149       12.411945       12.291892
 H         4.291607       12.161161       14.508377
 H         5.637020       12.167195       13.739416
 H         2.904261        7.032148       14.100080
 H         3.806763        8.286300       14.074868
 H         2.614127       13.710285       14.535173
 H         2.151130       12.456956       15.307522
 H         4.287371        8.712442       10.058250
 H         5.636364        8.716882        9.299537
 H         5.782482        8.809624       15.353876
 H         5.310709       10.070951       14.584832
 H         1.748354       12.227837       17.549105
 H         0.400583       12.233014       16.792517
 H         0.422820       12.147367       12.317089
 H         1.764677       12.161453       13.081999
 H         2.188462       12.393349       10.853513
 H         3.532633       12.366829       10.087425
 H         2.141971        8.453854        9.251328
 H         2.134291        8.469937       10.783962
 H         6.046103        8.476286       11.536830
 H         6.114223        8.508647       13.082247
 H         6.542770        7.189461       16.816536
 H         6.108771        8.443974       17.606941
 H         6.037520       12.470700       15.967987
 H         6.500017       13.714869       16.764660
 H         1.221207       10.085045       16.775270
 H         1.725021        8.788646       17.428959
