383
 generated by VMD
 O         9.103500        1.776466       12.313488
 O        12.988601        4.515940       10.055123
 O        14.260507        5.425756       12.291960
 O        12.968997        4.507033       14.526908
 O        10.394193        0.875853       14.571773
 O        10.384973        5.413874       14.583944
 O        12.966889        1.779649       10.059229
 O        12.984562        1.765951       14.561499
 O         9.105904        4.491233       16.812151
 O         9.096869        4.502832       12.329095
 O        10.390348        5.406932       10.068666
 O        10.386449        0.887168       10.057791
 O        14.215674        0.824436       12.308074
 O        14.268372        0.875929       16.823055
 O        14.222179        5.416085       16.790779
 O         9.093614        1.763853       16.813280
 O         9.084010        9.084311        3.297749
 O        12.953942       11.812936        1.113083
 O        14.255966       12.737502        3.332666
 O        12.978389       11.817726        5.577586
 O        10.400710        8.160196        5.523346
 O        10.382033       12.731024        5.584210
 O        12.993211        9.060159        1.093329
 O        12.980406        9.078937        5.560345
 O         9.117037       11.804296        7.824999
 O         9.080655       11.826131        3.338569
 O        10.375061       12.689223        1.085479
 O        10.406272        8.175512        1.084285
 O        14.273403        8.150560        3.333326
 O        14.276766        8.178463        7.805514
 O        14.290968       12.732404        7.793723
 O         9.108909        9.059843        7.777854
 O         1.316998        9.070567        3.354199
 O         5.192073       11.795975        1.109992
 O         6.501490       12.726105        3.306515
 O         5.193707       11.815663        5.525788
 O         2.626795        8.171877        5.580071
 O         2.606304       12.720553        5.584265
 O         5.207253        9.065393        1.112076
 O         5.209680        9.074153        5.571700
 O         1.316240       11.779964        7.808074
 O         1.303988       11.812810        3.356541
 O         2.604905       12.726580        1.120466
 O         2.622040        8.163033        1.120148
 O         6.504684        8.158369        3.347716
 O         6.522453        8.140953        7.784636
 O         6.530558       12.754162        7.715678
 O         1.341265        9.044185        7.835937
 O         1.314976        1.772535        3.359426
 O         5.174194        4.519114        1.141400
 O         6.494461        5.415840        3.357959
 O         5.185214        4.489796        5.580082
 O         2.635256        0.857081        5.569618
 O         2.611008        5.438515        5.533026
 O         5.201477        1.792144        1.154693
 O         5.216921        1.753135        5.576139
 O         1.334943        4.523634        7.775705
 O         1.286503        4.510369        3.322949
 O         2.588083        5.422375        1.098219
 O         2.618471        0.862740        1.125506
 O         6.535938        0.853681        3.359334
 O         6.528476        0.894174        7.827121
 O         6.494125        5.402003        7.815905
 O         1.330664        1.788619        7.804879
 O         9.126243        1.758397        3.323200
 O        12.964478        4.502486        1.094386
 O        14.244641        5.413607        3.333693
 O        12.964215        4.529569        5.572132
 O        10.392832        0.865513        5.581630
 O        10.380470        5.415361        5.548578
 O        12.967737        1.768965        1.120586
 O        12.973280        1.790021        5.613868
 O         9.097798        4.553936        7.802567
 O         9.078021        4.502061        3.315937
 O        10.389249        5.443226        1.102877
 O        10.400420        0.828377        1.081205
 O        14.258400        0.878572        3.368545
 O        14.281448        0.866184        7.837279
 O        14.285562        5.444489        7.806734
 O         9.109114        1.817698        7.812748
 O         1.257418        1.758071       12.295888
 O         5.229196        4.487178       10.069180
 O         6.500018        5.364339       12.338431
 O         5.151306        4.521160       14.599952
 O         2.520945        0.896125       14.567638
 O         2.505777        5.362478       14.562784
 O         5.211294        1.743164       10.104118
 O         5.133962        1.763284       14.627398
 O         1.274518        4.506124       16.821255
 O         1.284253        4.486522       12.259315
 O         2.625947        5.372220       10.045202
 O         2.599674        0.873958       10.068639
 O         6.534625        0.873181       12.406786
 O         6.489942        0.894430       16.860407
 O         6.492751        5.343553       16.852211
 O         1.313027        1.782017       16.852297
 O         9.180707        9.026523       12.268354
 O        13.004741       11.825215       10.022429
 O        14.246191       12.692598       12.293019
 O        13.001867       11.800431       14.571235
 O        10.417285        8.142026       14.546313
 O        10.428747       12.733968       14.597062
 O        12.985144        9.087958       10.024697
 O        13.001930        9.062244       14.528036
 O         9.088354       11.788373       16.803204
 O         9.280604       11.786033       12.294366
 O        10.456816       12.739673       10.049788
 O        10.419341        8.143450       10.001271
 O        14.260641        8.162171       12.274186
 O        14.257974        8.152492       16.781734
 O        14.243106       12.738797       16.827665
 O         9.112463        9.052739       16.791351
 O         1.291539        9.052486       12.300996
 O         5.175856       11.779838        9.877664
 O         6.765816       12.647780       12.018502
 O         5.058562       12.242226       14.603541
 O         2.455035        8.073171       14.527464
 O         2.449654       12.777583       14.560481
 O         5.165973        9.023331        9.983668
 O         5.082506        8.129753       14.525796
 O         1.276676       11.807108       16.843960
 O         1.284672       11.804359       12.300182
 O         2.585790       12.731172       10.047194
 O         2.580243        8.107343       10.079623
 O         6.588498        8.070098       12.177036
 O         6.589655        8.081847       16.883814
 O         6.530101       12.757121       16.862131
 O         1.299850        9.070566       16.823946
 H         9.552488        1.485476       11.511561
 H         9.112200        2.741074       12.300809
 H        13.456841        4.849359       10.829144
 H        13.452324        4.855184        9.282619
 H        14.281020        6.389152       12.291984
 H        15.176668        5.125479       12.280169
 H        13.430376        4.805964       13.735703
 H        12.989568        3.544163       14.515841
 H         9.967645        1.200821       13.772213
 H        11.301559        1.199994       14.554261
 H        10.417944        6.377186       14.575798
 H        11.297765        5.107118       14.558818
 H        12.993121        2.742818       10.042325
 H        13.436923        1.475674        9.275078
 H        13.436232        1.411298       13.787673
 H        13.456131        1.444375       15.336979
 H         9.569054        4.834149       16.039303
 H         9.565524        4.838633       17.583574
 H         9.525103        4.835140       13.125080
 H         8.184012        4.812530       12.354779
 H         9.957352        5.084727       10.865888
 H        11.294367        5.074966       10.084380
 H        11.290463        1.221739       10.038649
 H         9.955015        1.220686        9.263629
 H        13.764973        1.136819       11.516164
 H        14.207953       14.463624       12.276446
 H        15.174356        1.203393       16.854847
 H        13.827585        1.203106       17.614244
 H        13.780238        5.119918       15.987780
 H        14.222522        6.379503       16.769810
 H         9.115475        2.727601       16.799664
 H         9.545862        1.469726       16.015354
 H         9.059380       10.046962        3.318611
 H         8.169565        8.781485        3.315630
 H        12.030734       12.090715        1.103612
 H        12.953970       10.850013        1.104718
 H        13.791573       12.445973        2.540558
 H        14.249495       13.700540        3.326118
 H        12.989427       10.854709        5.551367
 H        13.423649       12.122347        4.779589
 H        10.384035        7.197330        5.506739
 H         9.936608        8.461584        4.735073
 H         9.956549       12.395191        6.380805
 H        11.286783       12.401407        5.595696
 H        12.085462        8.737129        1.074313
 H        13.419069        8.737947        0.291237
 H        13.420478        8.740493        4.773014
 H        12.076456        8.746583        5.532159
 H         9.581347       12.099521        8.614751
 H         9.122823       10.840794        7.836740
 H         9.516605       12.153455        4.132329
 H         8.176971       12.160316        3.353881
 H         9.901268       12.376413        1.863592
 H         9.904992       12.349299        0.314952
 H         9.926668        8.511824        1.849304
 H         9.940347        8.494728        0.302480
 H        14.252744        7.187533        3.312772
 H        13.824003        8.453326        2.536197
 H        13.809278        8.511397        7.032290
 H        13.806195        8.511927        8.578222
 H        15.187860       12.380731        7.770735
 H        13.843872       12.403236        7.005906
 H         9.537364        8.739595        6.977069
 H         8.204261        8.728613        7.762892
 H         1.755124        8.752474        4.151145
 H         0.416794        8.728286        3.371245
 H         5.174974       10.831995        1.098398
 H         4.276452       12.093577        1.108139
 H         6.021195       12.396877        4.074222
 H         6.036320       12.391189        2.530870
 H         4.286531       12.137767        5.566572
 H         5.649812       12.169612        6.296509
 H         3.531558        8.503048        5.595746
 H         2.200932        8.485678        6.385497
 H         2.131914       12.393690        4.811933
 H         2.143582       12.378247        6.356901
 H         5.636420        8.738824        1.909736
 H         4.303826        8.731741        1.127369
 H         5.223764       10.037222        5.582317
 H         5.675901        8.774770        6.360275
 H         1.754902       12.098833        8.603870
 H         1.338002       10.817035        7.845264
 H         1.284177       10.849719        3.352046
 H         0.388781       12.112357        3.346893
 H         2.608789       13.689584        1.139865
 H         2.147724       12.432998        1.915282
 H         2.160148        8.458991        1.911453
 H         2.596792        7.200247        1.128720
 H         6.493159        7.195604        3.371326
 H         6.046978        8.460960        4.139749
 H         6.040776        8.430580        8.567785
 H         6.505461        7.177773        7.799840
 H         7.441757       12.443763        7.746909
 H         6.559888       13.716826        7.751195
 H         0.431537        8.727076        7.840326
 H         1.759226        8.695874        8.631845
 H         1.794227        1.441329        4.127276
 H         1.781923        1.446890        2.582115
 H         4.270678        4.850387        1.099615
 H         5.622389        4.816894        0.341017
 H         6.030836        5.078988        4.132358
 H         6.008200        5.099894        2.588151
 H         5.163641        3.526667        5.577226
 H         4.271677        4.794354        5.564927
 H         3.555430        1.142892        5.571381
 H         2.643497       14.495842        5.580142
 H         2.614368        6.402020        5.523702
 H         2.143184        5.148362        4.742806
 H         5.667937        1.490034        1.941067
 H         5.197984        2.755548        1.180966
 H         5.702037        1.425759        4.810370
 H         5.690007        1.446616        6.356988
 H         1.761832        4.863409        6.981767
 H         0.432386        4.860705        7.769939
 H         1.276329        3.547340        3.343222
 H         0.367619        4.800628        3.330204
 H         2.118176        5.083999        1.868073
 H         2.116743        5.096982        0.323296
 H         2.185141        1.195049        0.331162
 H         3.521391        1.197263        1.112258
 H         6.544828       14.492346        3.333944
 H         7.454004        1.143821        3.344233
 H         7.427016        1.242288        7.847906
 H         6.090909        1.198230        8.628195
 H         6.037475        5.069335        8.596428
 H         6.017066        5.066947        7.049471
 H         1.337453        2.751671        7.769378
 H         1.791846        1.480152        7.017978
 H         9.122473        2.721199        3.296962
 H         9.576884        1.457684        2.526837
 H        13.411876        4.799907        0.294307
 H        12.971742        3.539345        1.079224
 H        13.777201        5.080417        2.559915
 H        13.770587        5.091105        4.108784
 H        12.947847        3.566548        5.594931
 H        12.045513        4.820655        5.572372
 H        10.375258       14.504345        5.571802
 H         9.948667        1.159772        4.779223
 H         9.905627        5.074912        4.782828
 H         9.909101        5.109900        6.331590
 H        13.397718        1.449702        1.921111
 H        12.068790        1.421862        1.125007
 H        12.071842        1.450084        5.624730
 H        13.407697        1.456728        6.406571
 H         8.187261        4.867517        7.832478
 H         9.531573        4.867860        8.603171
 H         9.516008        4.854542        2.533502
 H         8.172018        4.829277        3.303169
 H        11.301545        5.134541        1.104444
 H        10.418907        6.406461        1.098646
 H         9.938627        1.134934        0.292573
 H        10.375275       14.467588        1.061626
 H        15.165649        1.202071        3.384351
 H        13.829897        1.207515        4.166217
 H        14.310037       14.505204        7.823036
 H        15.195213        1.170905        7.822194
 H        13.814238        5.146504        7.021949
 H        14.268388        6.407954        7.789803
 H         9.121969        2.780733        7.785735
 H         9.557201        1.507780        7.018517
 H         1.691095        1.451659       13.099922
 H         0.356331        1.418613       12.318520
 H         5.236858        3.525252       10.096725
 H         5.669334        4.785404       10.873388
 H         6.020204        5.118163       13.135910
 H         6.515403        6.328046       12.303946
 H         4.244366        4.842248       14.590752
 H         5.103261        3.561126       14.606755
 H         3.446173        1.160699       14.585477
 H         2.505828       14.533179       14.574894
 H         2.081148        5.057366       13.755240
 H         2.458132        6.326542       14.544438
 H         5.630691        1.424085       10.905650
 H         4.299533        1.431639       10.119218
 H         5.628877        1.449212       13.867881
 H         5.607232        1.450792       15.406089
 H         0.368790        4.831882       16.795216
 H         1.698752        4.815160       16.010477
 H         1.765971        4.768543       11.474629
 H         1.277603        3.523104       12.250392
 H         2.203928        5.063370        9.236724
 H         3.533892        5.051839       10.032678
 H         2.148712        1.216039        9.289258
 H         2.110677        1.190781       10.835871
 H         6.588613       14.529426       12.405303
 H         7.445230        1.196242       12.375739
 H         7.395290        1.222067       16.864326
 H         6.063724        1.234536       17.654587
 H         7.395849        5.014970       16.803772
 H         6.042240        5.065873       16.046934
 H         1.306837        2.745982       16.827785
 H         1.742338        1.488787       16.040474
 H         9.229541        9.985792       12.264357
 H         9.625378        8.727101       11.467545
 H        13.465262       12.138824       10.808900
 H        13.486154       12.154984        9.255214
 H        15.155026       12.369833       12.311381
 H        13.819774       12.367001       13.092810
 H        13.436830       12.134226       15.363359
 H        12.099216       12.135057       14.599085
 H         9.994761        8.451359       13.737682
 H        11.319575        8.478764       14.528635
 H         9.951666       12.424492       15.374891
 H        10.405612       13.696749       14.616063
 H        12.960087       10.050790       10.027841
 H        12.072206        8.780301       10.018880
 H        13.012519       10.025293       14.519589
 H        13.447640        8.769817       13.724930
 H         9.062027       10.824852       16.785059
 H         8.174864       12.095717       16.815212
 H         9.708592       12.127697       13.087371
 H         9.760165       12.131910       11.531010
 H        11.379082       12.458035       10.013462
 H        10.454979       13.703129       10.039674
 H         9.950805        8.430370        9.210047
 H        10.404917        7.180064       10.002694
 H        13.830634        8.492398       11.478635
 H        15.167026        8.493578       12.260079
 H        13.841783        8.485192       15.978943
 H        15.165700        8.477450       16.779169
 H        13.777247       12.439524       17.615931
 H        14.239534       13.701832       16.846672
 H         9.542574        8.727448       15.994250
 H         8.216059        8.692427       16.795601
 H         1.318158       10.014174       12.321913
 H         1.725736        8.742306       13.107339
 H         5.704719       12.049840       10.618937
 H         5.634333       12.110925        9.096413
 H         7.670736       12.307659       12.130556
 H         5.598639       12.406731       13.851190
 H         5.602083       12.387829       15.382160
 H         2.094715        8.447473       15.335566
 H         3.416608        8.201096       14.548192
 H         2.046149       12.419440       15.357619
 H         3.384278       12.536505       14.593459
 H         5.123785        9.981549        9.939056
 H         4.256075        8.709579       10.026751
 H         5.632858        8.233821       15.298960
 H         5.634499        8.220600       13.752398
 H         0.374198       12.141982       16.873817
 H         1.726372       12.149729       17.623224
 H         1.760794       12.141166       11.535477
 H         1.726691       12.152383       13.084108
 H         3.498954       12.436767       10.000491
 H         2.604390       13.694633       10.046915
 H         2.133357        8.412046       10.877358
 H         2.580012        7.144436       10.101827
 H         7.476756        8.435652       12.183022
 H         6.128538        8.434205       11.417093
 H         6.094307        8.422554       17.634039
 H         6.551592        7.122200       16.934238
 H         6.515687       13.718703       16.911535
 H         6.054399       12.430400       17.632811
 H         1.312932       10.033374       16.844612
 H         1.767421        8.770917       17.609659
383
 generated by VMD
 O         9.103500        1.776466       12.313488
 O        12.988601        4.515940       10.055123
 O        14.260507        5.425756       12.291960
 O        12.968997        4.507033       14.526908
 O        10.394193        0.875853       14.571773
 O        10.384973        5.413874       14.583944
 O        12.966889        1.779649       10.059229
 O        12.984562        1.765951       14.561499
 O         9.105904        4.491233       16.812151
 O         9.096869        4.502832       12.329095
 O        10.390348        5.406932       10.068666
 O        10.386449        0.887168       10.057791
 O        14.215674        0.824436       12.308074
 O        14.268372        0.875929       16.823055
 O        14.222179        5.416085       16.790779
 O         9.093614        1.763853       16.813280
 O         9.084010        9.084311        3.297749
 O        12.953942       11.812936        1.113083
 O        14.255966       12.737502        3.332666
 O        12.978389       11.817726        5.577586
 O        10.400710        8.160196        5.523346
 O        10.382033       12.731024        5.584210
 O        12.993211        9.060159        1.093329
 O        12.980406        9.078937        5.560345
 O         9.117037       11.804296        7.824999
 O         9.080655       11.826131        3.338569
 O        10.375061       12.689223        1.085479
 O        10.406272        8.175512        1.084285
 O        14.273403        8.150560        3.333326
 O        14.276766        8.178463        7.805514
 O        14.290968       12.732404        7.793723
 O         9.108909        9.059843        7.777854
 O         1.316998        9.070567        3.354199
 O         5.192073       11.795975        1.109992
 O         6.501490       12.726105        3.306515
 O         5.193707       11.815663        5.525788
 O         2.626795        8.171877        5.580071
 O         2.606304       12.720553        5.584265
 O         5.207253        9.065393        1.112076
 O         5.209680        9.074153        5.571700
 O         1.316240       11.779964        7.808074
 O         1.303988       11.812810        3.356541
 O         2.604905       12.726580        1.120466
 O         2.622040        8.163033        1.120148
 O         6.504684        8.158369        3.347716
 O         6.522453        8.140953        7.784636
 O         6.530558       12.754162        7.715678
 O         1.341265        9.044185        7.835937
 O         1.314976        1.772535        3.359426
 O         5.174194        4.519114        1.141400
 O         6.494461        5.415840        3.357959
 O         5.185214        4.489796        5.580082
 O         2.635256        0.857081        5.569618
 O         2.611008        5.438515        5.533026
 O         5.201477        1.792144        1.154693
 O         5.216921        1.753135        5.576139
 O         1.334943        4.523634        7.775705
 O         1.286503        4.510369        3.322949
 O         2.588083        5.422375        1.098219
 O         2.618471        0.862740        1.125506
 O         6.535938        0.853681        3.359334
 O         6.528476        0.894174        7.827121
 O         6.494125        5.402003        7.815905
 O         1.330664        1.788619        7.804879
 O         9.126243        1.758397        3.323200
 O        12.964478        4.502486        1.094386
 O        14.244641        5.413607        3.333693
 O        12.964215        4.529569        5.572132
 O        10.392832        0.865513        5.581630
 O        10.380470        5.415361        5.548578
 O        12.967737        1.768965        1.120586
 O        12.973280        1.790021        5.613868
 O         9.097798        4.553936        7.802567
 O         9.078021        4.502061        3.315937
 O        10.389249        5.443226        1.102877
 O        10.400420        0.828377        1.081205
 O        14.258400        0.878572        3.368545
 O        14.281448        0.866184        7.837279
 O        14.285562        5.444489        7.806734
 O         9.109114        1.817698        7.812748
 O         1.257418        1.758071       12.295888
 O         5.229196        4.487178       10.069180
 O         6.500018        5.364339       12.338431
 O         5.151306        4.521160       14.599952
 O         2.520945        0.896125       14.567638
 O         2.505777        5.362478       14.562784
 O         5.211294        1.743164       10.104118
 O         5.133962        1.763284       14.627398
 O         1.274518        4.506124       16.821255
 O         1.284253        4.486522       12.259315
 O         2.625947        5.372220       10.045202
 O         2.599674        0.873958       10.068639
 O         6.534625        0.873181       12.406786
 O         6.489942        0.894430       16.860407
 O         6.492751        5.343553       16.852211
 O         1.313027        1.782017       16.852297
 O         9.180707        9.026523       12.268354
 O        13.004741       11.825215       10.022429
 O        14.246191       12.692598       12.293019
 O        13.001867       11.800431       14.571235
 O        10.417285        8.142026       14.546313
 O        10.428747       12.733968       14.597062
 O        12.985144        9.087958       10.024697
 O        13.001930        9.062244       14.528036
 O         9.088354       11.788373       16.803204
 O         9.280604       11.786033       12.294366
 O        10.456816       12.739673       10.049788
 O        10.419341        8.143450       10.001271
 O        14.260641        8.162171       12.274186
 O        14.257974        8.152492       16.781734
 O        14.243106       12.738797       16.827665
 O         9.112463        9.052739       16.791351
 O         1.291539        9.052486       12.300996
 O         5.175856       11.779838        9.877664
 O         6.765816       12.647780       12.018502
 O         5.058562       12.242226       14.603541
 O         2.455035        8.073171       14.527464
 O         2.449654       12.777583       14.560481
 O         5.165973        9.023331        9.983668
 O         5.082506        8.129753       14.525796
 O         1.276676       11.807108       16.843960
 O         1.284672       11.804359       12.300182
 O         2.585790       12.731172       10.047194
 O         2.580243        8.107343       10.079623
 O         6.588498        8.070098       12.177036
 O         6.589655        8.081847       16.883814
 O         6.530101       12.757121       16.862131
 O         1.299850        9.070566       16.823946
 H         9.552488        1.485476       11.511561
 H         9.112200        2.741074       12.300809
 H        13.456841        4.849359       10.829144
 H        13.452324        4.855184        9.282619
 H        14.281020        6.389152       12.291984
 H        15.176668        5.125479       12.280169
 H        13.430376        4.805964       13.735703
 H        12.989568        3.544163       14.515841
 H         9.967645        1.200821       13.772213
 H        11.301559        1.199994       14.554261
 H        10.417944        6.377186       14.575798
 H        11.297765        5.107118       14.558818
 H        12.993121        2.742818       10.042325
 H        13.436923        1.475674        9.275078
 H        13.436232        1.411298       13.787673
 H        13.456131        1.444375       15.336979
 H         9.569054        4.834149       16.039303
 H         9.565524        4.838633       17.583574
 H         9.525103        4.835140       13.125080
 H         8.184012        4.812530       12.354779
 H         9.957352        5.084727       10.865888
 H        11.294367        5.074966       10.084380
 H        11.290463        1.221739       10.038649
 H         9.955015        1.220686        9.263629
 H        13.764973        1.136819       11.516164
 H        14.207953       14.463624       12.276446
 H        15.174356        1.203393       16.854847
 H        13.827585        1.203106       17.614244
 H        13.780238        5.119918       15.987780
 H        14.222522        6.379503       16.769810
 H         9.115475        2.727601       16.799664
 H         9.545862        1.469726       16.015354
 H         9.059380       10.046962        3.318611
 H         8.169565        8.781485        3.315630
 H        12.030734       12.090715        1.103612
 H        12.953970       10.850013        1.104718
 H        13.791573       12.445973        2.540558
 H        14.249495       13.700540        3.326118
 H        12.989427       10.854709        5.551367
 H        13.423649       12.122347        4.779589
 H        10.384035        7.197330        5.506739
 H         9.936608        8.461584        4.735073
 H         9.956549       12.395191        6.380805
 H        11.286783       12.401407        5.595696
 H        12.085462        8.737129        1.074313
 H        13.419069        8.737947        0.291237
 H        13.420478        8.740493        4.773014
 H        12.076456        8.746583        5.532159
 H         9.581347       12.099521        8.614751
 H         9.122823       10.840794        7.836740
 H         9.516605       12.153455        4.132329
 H         8.176971       12.160316        3.353881
 H         9.901268       12.376413        1.863592
 H         9.904992       12.349299        0.314952
 H         9.926668        8.511824        1.849304
 H         9.940347        8.494728        0.302480
 H        14.252744        7.187533        3.312772
 H        13.824003        8.453326        2.536197
 H        13.809278        8.511397        7.032290
 H        13.806195        8.511927        8.578222
 H        15.187860       12.380731        7.770735
 H        13.843872       12.403236        7.005906
 H         9.537364        8.739595        6.977069
 H         8.204261        8.728613        7.762892
 H         1.755124        8.752474        4.151145
 H         0.416794        8.728286        3.371245
 H         5.174974       10.831995        1.098398
 H         4.276452       12.093577        1.108139
 H         6.021195       12.396877        4.074222
 H         6.036320       12.391189        2.530870
 H         4.286531       12.137767        5.566572
 H         5.649812       12.169612        6.296509
 H         3.531558        8.503048        5.595746
 H         2.200932        8.485678        6.385497
 H         2.131914       12.393690        4.811933
 H         2.143582       12.378247        6.356901
 H         5.636420        8.738824        1.909736
 H         4.303826        8.731741        1.127369
 H         5.223764       10.037222        5.582317
 H         5.675901        8.774770        6.360275
 H         1.754902       12.098833        8.603870
 H         1.338002       10.817035        7.845264
 H         1.284177       10.849719        3.352046
 H         0.388781       12.112357        3.346893
 H         2.608789       13.689584        1.139865
 H         2.147724       12.432998        1.915282
 H         2.160148        8.458991        1.911453
 H         2.596792        7.200247        1.128720
 H         6.493159        7.195604        3.371326
 H         6.046978        8.460960        4.139749
 H         6.040776        8.430580        8.567785
 H         6.505461        7.177773        7.799840
 H         7.441757       12.443763        7.746909
 H         6.559888       13.716826        7.751195
 H         0.431537        8.727076        7.840326
 H         1.759226        8.695874        8.631845
 H         1.794227        1.441329        4.127276
 H         1.781923        1.446890        2.582115
 H         4.270678        4.850387        1.099615
 H         5.622389        4.816894        0.341017
 H         6.030836        5.078988        4.132358
 H         6.008200        5.099894        2.588151
 H         5.163641        3.526667        5.577226
 H         4.271677        4.794354        5.564927
 H         3.555430        1.142892        5.571381
 H         2.643497       14.495842        5.580142
 H         2.614368        6.402020        5.523702
 H         2.143184        5.148362        4.742806
 H         5.667937        1.490034        1.941067
 H         5.197984        2.755548        1.180966
 H         5.702037        1.425759        4.810370
 H         5.690007        1.446616        6.356988
 H         1.761832        4.863409        6.981767
 H         0.432386        4.860705        7.769939
 H         1.276329        3.547340        3.343222
 H         0.367619        4.800628        3.330204
 H         2.118176        5.083999        1.868073
 H         2.116743        5.096982        0.323296
 H         2.185141        1.195049        0.331162
 H         3.521391        1.197263        1.112258
 H         6.544828       14.492346        3.333944
 H         7.454004        1.143821        3.344233
 H         7.427016        1.242288        7.847906
 H         6.090909        1.198230        8.628195
 H         6.037475        5.069335        8.596428
 H         6.017066        5.066947        7.049471
 H         1.337453        2.751671        7.769378
 H         1.791846        1.480152        7.017978
 H         9.122473        2.721199        3.296962
 H         9.576884        1.457684        2.526837
 H        13.411876        4.799907        0.294307
 H        12.971742        3.539345        1.079224
 H        13.777201        5.080417        2.559915
 H        13.770587        5.091105        4.108784
 H        12.947847        3.566548        5.594931
 H        12.045513        4.820655        5.572372
 H        10.375258       14.504345        5.571802
 H         9.948667        1.159772        4.779223
 H         9.905627        5.074912        4.782828
 H         9.909101        5.109900        6.331590
 H        13.397718        1.449702        1.921111
 H        12.068790        1.421862        1.125007
 H        12.071842        1.450084        5.624730
 H        13.407697        1.456728        6.406571
 H         8.187261        4.867517        7.832478
 H         9.531573        4.867860        8.603171
 H         9.516008        4.854542        2.533502
 H         8.172018        4.829277        3.303169
 H        11.301545        5.134541        1.104444
 H        10.418907        6.406461        1.098646
 H         9.938627        1.134934        0.292573
 H        10.375275       14.467588        1.061626
 H        15.165649        1.202071        3.384351
 H        13.829897        1.207515        4.166217
 H        14.310037       14.505204        7.823036
 H        15.195213        1.170905        7.822194
 H        13.814238        5.146504        7.021949
 H        14.268388        6.407954        7.789803
 H         9.121969        2.780733        7.785735
 H         9.557201        1.507780        7.018517
 H         1.691095        1.451659       13.099922
 H         0.356331        1.418613       12.318520
 H         5.236858        3.525252       10.096725
 H         5.669334        4.785404       10.873388
 H         6.020204        5.118163       13.135910
 H         6.515403        6.328046       12.303946
 H         4.244366        4.842248       14.590752
 H         5.103261        3.561126       14.606755
 H         3.446173        1.160699       14.585477
 H         2.505828       14.533179       14.574894
 H         2.081148        5.057366       13.755240
 H         2.458132        6.326542       14.544438
 H         5.630691        1.424085       10.905650
 H         4.299533        1.431639       10.119218
 H         5.628877        1.449212       13.867881
 H         5.607232        1.450792       15.406089
 H         0.368790        4.831882       16.795216
 H         1.698752        4.815160       16.010477
 H         1.765971        4.768543       11.474629
 H         1.277603        3.523104       12.250392
 H         2.203928        5.063370        9.236724
 H         3.533892        5.051839       10.032678
 H         2.148712        1.216039        9.289258
 H         2.110677        1.190781       10.835871
 H         6.588613       14.529426       12.405303
 H         7.445230        1.196242       12.375739
 H         7.395290        1.222067       16.864326
 H         6.063724        1.234536       17.654587
 H         7.395849        5.014970       16.803772
 H         6.042240        5.065873       16.046934
 H         1.306837        2.745982       16.827785
 H         1.742338        1.488787       16.040474
 H         9.229541        9.985792       12.264357
 H         9.625378        8.727101       11.467545
 H        13.465262       12.138824       10.808900
 H        13.486154       12.154984        9.255214
 H        15.155026       12.369833       12.311381
 H        13.819774       12.367001       13.092810
 H        13.436830       12.134226       15.363359
 H        12.099216       12.135057       14.599085
 H         9.994761        8.451359       13.737682
 H        11.319575        8.478764       14.528635
 H         9.951666       12.424492       15.374891
 H        10.405612       13.696749       14.616063
 H        12.960087       10.050790       10.027841
 H        12.072206        8.780301       10.018880
 H        13.012519       10.025293       14.519589
 H        13.447640        8.769817       13.724930
 H         9.062027       10.824852       16.785059
 H         8.174864       12.095717       16.815212
 H         9.708592       12.127697       13.087371
 H         9.760165       12.131910       11.531010
 H        11.379082       12.458035       10.013462
 H        10.454979       13.703129       10.039674
 H         9.950805        8.430370        9.210047
 H        10.404917        7.180064       10.002694
 H        13.830634        8.492398       11.478635
 H        15.167026        8.493578       12.260079
 H        13.841783        8.485192       15.978943
 H        15.165700        8.477450       16.779169
 H        13.777247       12.439524       17.615931
 H        14.239534       13.701832       16.846672
 H         9.542574        8.727448       15.994250
 H         8.216059        8.692427       16.795601
 H         1.318158       10.014174       12.321913
 H         1.725736        8.742306       13.107339
 H         5.704719       12.049840       10.618937
 H         5.634333       12.110925        9.096413
 H         7.670736       12.307659       12.130556
 H         5.598639       12.406731       13.851190
 H         5.602083       12.387829       15.382160
 H         2.094715        8.447473       15.335566
 H         3.416608        8.201096       14.548192
 H         2.046149       12.419440       15.357619
 H         3.384278       12.536505       14.593459
 H         5.123785        9.981549        9.939056
 H         4.256075        8.709579       10.026751
 H         5.632858        8.233821       15.298960
 H         5.634499        8.220600       13.752398
 H         0.374198       12.141982       16.873817
 H         1.726372       12.149729       17.623224
 H         1.760794       12.141166       11.535477
 H         1.726691       12.152383       13.084108
 H         3.498954       12.436767       10.000491
 H         2.604390       13.694633       10.046915
 H         2.133357        8.412046       10.877358
 H         2.580012        7.144436       10.101827
 H         7.476756        8.435652       12.183022
 H         6.128538        8.434205       11.417093
 H         6.094307        8.422554       17.634039
 H         6.551592        7.122200       16.934238
 H         6.515687       13.718703       16.911535
 H         6.054399       12.430400       17.632811
 H         1.312932       10.033374       16.844612
 H         1.767421        8.770917       17.609659
