383
 generated by VMD
 O         9.072523        1.783491       12.240121
 O        12.939048        4.517633       10.018582
 O        14.243341        5.386101       12.275047
 O        12.956401        4.454876       14.531643
 O        10.306828        0.841661       14.505749
 O        10.383110        5.386268       14.556969
 O        12.938769        1.780421       10.020284
 O        12.909214        1.744041       14.453274
 O         9.067146        4.509960       16.788229
 O         9.104165        4.520392       12.297018
 O        10.349265        5.433023       10.040450
 O        10.368197        0.870666       10.018532
 O        14.238504        0.829094       12.225724
 O        14.509493        0.783897       16.522320
 O        14.243686        5.358691       16.768709
 O         9.047553        1.782693       16.756588
 O         9.102836        9.071512        3.379750
 O        12.904357       11.794303        1.103170
 O        14.264103       12.695805        3.344179
 O        12.992908       11.790309        5.574327
 O        10.382237        8.129374        5.607867
 O        10.412366       12.709231        5.605284
 O        12.965956        9.048041        1.124156
 O        12.966114        9.055131        5.589010
 O         9.103434       11.796290        7.840508
 O         9.106464       11.812963        3.381037
 O        10.335519       12.715138        1.097738
 O        10.369316        8.199927        1.112111
 O        14.295442        8.157611        3.362493
 O        14.241628        8.129086        7.824047
 O        14.275692       12.702886        7.799956
 O         9.095740        9.054170        7.847882
 O         1.346176        9.071404        3.317083
 O         5.273156       11.817605        1.115225
 O         6.535686       12.720502        3.364303
 O         5.222364       11.841846        5.597670
 O         2.631041        8.189522        5.564228
 O         2.622770       12.726986        5.607281
 O         5.214490        9.063905        1.130062
 O         5.215750        9.101851        5.607466
 O         1.324103       11.771268        7.822747
 O         1.322429       11.823923        3.385150
 O         2.717376       12.820530        1.242523
 O         2.623085        8.097732        1.086076
 O         6.510461        8.165499        3.368412
 O         6.504898        8.164862        7.839425
 O         6.511978       12.719788        7.838550
 O         1.301548        9.032091        7.798590
 O         1.372307        1.811597        3.356912
 O         5.227196        4.485788        1.133863
 O         6.534689        5.425107        3.359710
 O         5.207068        4.530037        5.576635
 O         2.635648        0.865467        5.611924
 O         2.626906        5.459513        5.627752
 O         5.238313        1.752497        1.094391
 O         5.202302        1.793936        5.580477
 O         1.319824        4.513863        7.829995
 O         1.322433        4.547391        3.386262
 O         2.639246        5.379981        1.127344
 O         2.636716        0.923262        1.112926
 O         6.457774        0.853574        3.361992
 O         6.510663        0.859078        7.789659
 O         6.465542        5.426692        7.833341
 O         1.322421        1.769179        7.834585
 O         9.026836        1.801703        3.352204
 O        12.954708        4.639431        1.146434
 O        14.268188        5.432351        3.379415
 O        12.958103        4.464560        5.586717
 O        10.391660        0.861127        5.550030
 O        10.372825        5.391053        5.587941
 O        12.660024        1.994286        1.910949
 O        12.976465        1.737449        5.637458
 O         9.047860        4.504754        7.821701
 O         9.111817        4.524708        3.326646
 O        10.344972        5.469182        1.073927
 O        10.261418        0.825007        1.093196
 O        14.335265        0.782350        3.492131
 O        14.284970        0.835630        7.859160
 O        14.256332        5.398428        7.792526
 O         9.088752        1.772535        7.770515
 O         1.307185        1.764742       12.250829
 O         5.203852        4.467534       10.076720
 O         6.502551        5.380500       12.308278
 O         5.212464        4.493583       14.546418
 O         2.645504        0.923909       14.485780
 O         2.617869        5.400712       14.542300
 O         5.206478        1.735049       10.022735
 O         5.235953        1.766651       14.508773
 O         1.328045        4.515777       16.799326
 O         1.304887        4.503641       12.304392
 O         2.618272        5.398400       10.077641
 O         2.617565        0.829050       10.044992
 O         6.513576        0.853788       12.261524
 O         6.473183        0.846081       16.768625
 O         6.469233        5.403819       16.804903
 O         1.420799        1.763060       16.767378
 O         9.093466        9.057840       12.320528
 O        12.953882       11.788606       10.019439
 O        14.238043       12.694096       12.275443
 O        12.885761       11.764361       14.485126
 O        10.357617        8.115813       14.555120
 O        10.311261       12.700442       14.534882
 O        12.975377        9.048913       10.078861
 O        12.944247        9.010647       14.533762
 O         9.076057       11.791021       16.796108
 O         9.101260       11.797299       12.281322
 O        10.374357       12.737249       10.057920
 O        10.389045        8.170998       10.082445
 O        14.271194        8.128889       12.302022
 O        14.197935        8.080994       16.807594
 O        14.170967       12.546498       16.792765
 O         9.088598        9.052169       16.800350
 O         1.333128        9.052314       12.264557
 O         5.211686       11.787565       10.070211
 O         6.538955       12.721620       12.255598
 O         5.256481       11.787312       14.474116
 O         2.627237        8.143232       14.498841
 O         2.714032       12.763650       14.457860
 O         5.205743        9.054181       10.077682
 O         5.232746        9.036562       14.519950
 O         1.823663       11.737984       16.908806
 O         1.307054       11.803118       12.273808
 O         2.617712       12.680476       10.043676
 O         2.621464        8.139506       10.020458
 O         6.530359        8.108782       12.288312
 O         6.502713        8.148377       16.807201
 O         6.495971       12.700673       16.761625
 O         1.304458        8.945784       16.737171
 H         9.101800        2.746398       12.246180
 H         9.538919        1.493518       11.448586
 H        13.378021        4.843272        9.225301
 H        12.035717        4.850452       10.000404
 H        13.785003        5.099728       11.478415
 H        14.237439        6.348980       12.265942
 H        12.952599        3.490211       14.491488
 H        13.404010        4.762329       13.737596
 H        10.290368       14.481414       14.496144
 H         9.863144        1.140388       13.705882
 H        11.285068        5.046203       14.573034
 H         9.944229        5.062994       15.351613
 H        12.950136        2.743269        9.996704
 H        13.417139        1.471434        9.242258
 H        12.008000        1.408800       14.459576
 H        13.335050        1.403225       13.661305
 H         8.150723        4.804990       16.786718
 H         9.046034        3.545989       16.785452
 H         8.193604        4.833287       12.327778
 H         9.536358        4.831791       13.100153
 H        10.351428        6.395837       10.073790
 H         9.915391        5.131884       10.846738
 H        11.274684        1.198133        9.997324
 H         9.938190        1.191257        9.218345
 H        13.808814        1.180890       11.438684
 H        15.139767        1.166174       12.226560
 H        13.917904        1.098838       15.839605
 H        15.150764        5.036678       16.765539
 H        13.817535        5.006467       15.979842
 H         8.147820        1.440393       16.737789
 H         9.484365        1.449159       15.965743
 H         8.196013        8.747521        3.392752
 H         9.533744        8.722433        4.167577
 H        11.990509       12.103762        1.106264
 H        12.881713       10.831881        1.119215
 H        14.279039       13.663478        3.356047
 H        13.791541       12.429953        2.550524
 H        13.436868       12.091743        4.772511
 H        12.997638       10.827479        5.553768
 H        10.367627        7.165987        5.621085
 H         9.925816        8.428393        6.401550
 H         9.980108       12.381994        6.400880
 H        11.316239       12.375881        5.616766
 H        13.412341        8.696472        0.346419
 H        13.448061        8.722508        1.891911
 H        13.395786        8.725291        6.385773
 H        12.062078        8.723749        5.607459
 H         9.529693       12.138884        8.634466
 H         8.199090       12.126834        7.850241
 H         9.574723       12.112092        4.168429
 H         9.117856       10.850259        3.402164
 H        10.310875       13.680998        1.102925
 H         9.893616       12.424678        1.901796
 H        11.283231        8.503528        1.143184
 H         9.939610        8.521074        1.911911
 H        14.275334        7.193598        3.392662
 H        13.827855        8.462626        4.146977
 H        14.230490        7.165756        7.835609
 H        13.799290        8.426346        8.626287
 H        15.176386       12.362159        7.793325
 H        13.850064       12.378439        6.997954
 H         9.557165        8.764522        8.643067
 H         9.110819       10.017348        7.857455
 H         1.766872        8.724030        2.523585
 H         0.442216        8.736737        3.319367
 H         4.393740       12.203839        1.157107
 H         5.680762       12.135190        0.301568
 H         7.444176       12.397664        3.367903
 H         6.128442       12.382607        2.559668
 H         4.316209       12.167542        5.574507
 H         5.660143       12.162261        4.801192
 H         3.531283        8.532139        5.564991
 H         2.208475        8.508108        4.758813
 H         2.164181       12.379662        6.380083
 H         2.143609       12.399232        4.838149
 H         5.191531       10.026127        1.123484
 H         4.302043        8.758150        1.109443
 H         5.671298        8.797453        6.399669
 H         5.234072       10.064640        5.627641
 H         1.329545       10.808363        7.838724
 H         1.784417       12.066425        8.616369
 H         1.317636       10.861488        3.352082
 H         0.400474       12.106572        3.360811
 H         2.223330       12.510061        2.009366
 H         2.666304       13.785380        1.230517
 H         2.635390        7.132762        1.101943
 H         2.164844        8.347113        0.280012
 H         6.040759        8.503311        4.137940
 H         6.040415        8.489970        2.592556
 H         6.070223        8.490015        8.635587
 H         7.413957        8.482693        7.867122
 H         6.057274       12.423040        7.042383
 H         6.503809       13.682480        7.809886
 H         1.735847        8.724278        6.995607
 H         0.397039        8.702392        7.780255
 H         1.823421        1.506240        4.149660
 H         1.357089        2.773536        3.396341
 H         5.254714        3.522693        1.141234
 H         5.694923        4.788419        1.919038
 H         6.543328        6.388118        3.359671
 H         7.454570        5.137235        3.348014
 H         5.209288        3.566500        5.558991
 H         5.678058        4.822313        4.788320
 H         2.612732       14.504766        5.626053
 H         2.166209        1.165181        6.397834
 H         3.539132        5.151856        5.598857
 H         2.656809        6.422319        5.606956
 H         4.321104        1.456143        1.075060
 H         5.654302        1.425321        0.289210
 H         5.620593        1.449893        4.782568
 H         4.298633        1.458639        5.582771
 H         1.780750        4.836308        8.611880
 H         1.798364        4.858946        7.067809
 H         1.750653        4.891146        4.176371
 H         0.412396        4.865132        3.396824
 H         3.540364        5.040966        1.157129
 H         2.194042        5.069078        1.922773
 H         2.168075        1.272824        1.879710
 H         2.167480        1.228544        0.325910
 H         6.030099        1.142449        2.547694
 H         6.477013       14.492738        3.339787
 H         7.415191        1.190326        7.767558
 H         6.071566        1.197810        7.001300
 H         6.017802        5.132898        7.032272
 H         6.462995        6.389772        7.817400
 H         1.786249        1.469272        8.624313
 H         1.334413        2.732127        7.849016
 H         8.127064        1.464223        3.401968
 H         9.502342        1.459314        4.115763
 H        12.050734        4.961695        1.086583
 H        13.390710        4.863215        0.319631
 H        13.795758        5.143065        2.588343
 H        13.790325        5.071013        4.133059
 H        12.042826        4.762713        5.586846
 H        12.938566        3.500280        5.586346
 H        10.416104       14.501373        5.565668
 H        11.309818        1.156497        5.557677
 H         9.883718        5.064455        6.349926
 H         9.915707        5.073941        4.800498
 H        12.777683        2.868526        1.543804
 H        11.899358        1.594734        1.495690
 H        13.430403        1.421928        6.425232
 H        13.481788        1.397307        4.887865
 H         8.143833        4.836272        7.844769
 H         9.486654        4.839846        8.611514
 H         9.106549        3.561024        3.303063
 H         9.561776        4.825531        2.529377
 H         9.892331        5.158229        0.283235
 H        10.320868        6.431485        1.059046
 H         9.784545        1.178100        1.849506
 H         9.842406        1.177342        0.303263
 H        15.218425        1.147874        3.403350
 H        13.775705        1.213433        2.823195
 H        14.307513       14.474744        7.841385
 H        15.198686        1.140219        7.849424
 H        13.825466        5.055388        7.000795
 H        15.163639        5.075532        7.785687
 H         9.089850        2.735757        7.763081
 H         9.553889        1.480282        6.978246
 H         1.760141        1.479333       13.051972
 H         1.309938        2.727765       12.272547
 H         5.646178        4.787727        9.283468
 H         5.217965        3.505059       10.033392
 H         6.034763        5.037416       11.539279
 H         6.031349        5.063610       13.087283
 H         5.238029        3.530109       14.556771
 H         5.654471        4.793293       15.348063
 H         2.212621        1.212813       15.300346
 H         2.652191       14.565568       14.498864
 H         3.530898        5.093997       14.536772
 H         2.649765        6.362657       14.519313
 H         5.640820        1.407760        9.227362
 H         4.303599        1.399924       10.011696
 H         4.321857        1.461780       14.476243
 H         5.668581        1.441025       13.712205
 H         1.797577        4.830153       17.577518
 H         1.801597        4.849519       16.030724
 H         1.734453        4.825646       13.104203
 H         0.396561        4.824255       12.321164
 H         2.174155        5.081817       10.872202
 H         3.517720        5.055684       10.103096
 H         2.159763        1.135282       10.836679
 H         2.597822       14.468722       10.064495
 H         6.070840        1.171672       11.467431
 H         7.411558        1.203846       12.236670
 H         6.026961        1.142950       15.967823
 H         6.471977       14.485478       16.745930
 H         6.466001        6.366778       16.825048
 H         6.027297        5.107807       17.607712
 H         1.361950        2.722736       16.780745
 H         0.512043        1.428794       16.694757
 H         9.518685        8.717276       13.115643
 H         8.192224        8.716660       12.321595
 H        13.392827       12.116762        9.227207
 H        12.054177       12.131146       10.006877
 H        13.791625       12.389477       11.478372
 H        14.226557       13.657435       12.241219
 H        13.368012       12.106827       13.724254
 H        13.343187       12.077422       15.269602
 H        10.385653        7.152245       14.551803
 H        11.273182        8.415564       14.543704
 H         9.894058       12.373799       15.340073
 H        11.216784       12.372351       14.537819
 H        12.985954       10.012101       10.078747
 H        13.440047        8.761053       10.872542
 H        13.385288        8.721410       15.339414
 H        12.939702        9.973430       14.541484
 H         9.094306       10.828115       16.816481
 H         9.521238       12.097051       17.594620
 H         9.527371       12.091937       13.095180
 H         9.102031       10.834052       12.305697
 H         9.932148       12.430608       10.857473
 H        10.358009       13.700226       10.074881
 H         9.957346        8.495543       10.880759
 H        11.298731        8.488331       10.107258
 H        13.838529        8.446792       13.101833
 H        15.176200        8.456835       12.321225
 H        15.115817        8.360208       16.779835
 H        14.210565        7.115489       16.790218
 H        13.709732       12.292019       17.606203
 H        14.342717       14.455816       16.634691
 H         9.563474        8.737404       17.577280
 H         9.553887        8.711710       16.028559
 H         1.335915       10.014590       12.246449
 H         1.781899        8.755018       11.465665
 H         5.690779       12.126399       10.835270
 H         5.672388       12.119894        9.292319
 H         7.455313       12.422161       12.256348
 H         6.555989       13.685340       12.261890
 H         5.729969       12.087231       13.689913
 H         5.260611       10.824175       14.457616
 H         2.197692        8.473756       13.701577
 H         3.532636        8.472067       14.486528
 H         2.363024       12.450145       15.282977
 H         3.619491       12.428881       14.426151
 H         4.289837        8.756448       10.057927
 H         5.186221       10.017550       10.084444
 H         5.706777        8.684437       13.758960
 H         5.689790        8.721125       15.306409
 H        -0.520504       12.123918       16.828421
 H         2.148963       12.130578       17.737831
 H         0.400433       12.129348       12.296305
 H         1.750667       12.144821       13.054626
 H         3.525053       12.358898       10.079334
 H         2.173678       12.358284       10.835704
 H         2.154566        8.418549        9.225452
 H         2.614003        7.176335       10.025383
 H         6.056219        8.418584       11.509408
 H         6.508061        7.145507       12.264761
 H         7.409547        8.473305       16.829870
 H         6.068128        8.486650       17.596127
 H         7.403101       12.374606       16.757431
 H         6.081015       12.364775       15.960726
 H         1.377325        9.891099       16.767414
 H         1.764779        8.667244       15.934462
383
 generated by VMD
 O         9.072523        1.783491       12.240121
 O        12.939048        4.517633       10.018582
 O        14.243341        5.386101       12.275047
 O        12.956401        4.454876       14.531643
 O        10.306828        0.841661       14.505749
 O        10.383110        5.386268       14.556969
 O        12.938769        1.780421       10.020284
 O        12.909214        1.744041       14.453274
 O         9.067146        4.509960       16.788229
 O         9.104165        4.520392       12.297018
 O        10.349265        5.433023       10.040450
 O        10.368197        0.870666       10.018532
 O        14.238504        0.829094       12.225724
 O        14.509493        0.783897       16.522320
 O        14.243686        5.358691       16.768709
 O         9.047553        1.782693       16.756588
 O         9.102836        9.071512        3.379750
 O        12.904357       11.794303        1.103170
 O        14.264103       12.695805        3.344179
 O        12.992908       11.790309        5.574327
 O        10.382237        8.129374        5.607867
 O        10.412366       12.709231        5.605284
 O        12.965956        9.048041        1.124156
 O        12.966114        9.055131        5.589010
 O         9.103434       11.796290        7.840508
 O         9.106464       11.812963        3.381037
 O        10.335519       12.715138        1.097738
 O        10.369316        8.199927        1.112111
 O        14.295442        8.157611        3.362493
 O        14.241628        8.129086        7.824047
 O        14.275692       12.702886        7.799956
 O         9.095740        9.054170        7.847882
 O         1.346176        9.071404        3.317083
 O         5.273156       11.817605        1.115225
 O         6.535686       12.720502        3.364303
 O         5.222364       11.841846        5.597670
 O         2.631041        8.189522        5.564228
 O         2.622770       12.726986        5.607281
 O         5.214490        9.063905        1.130062
 O         5.215750        9.101851        5.607466
 O         1.324103       11.771268        7.822747
 O         1.322429       11.823923        3.385150
 O         2.717376       12.820530        1.242523
 O         2.623085        8.097732        1.086076
 O         6.510461        8.165499        3.368412
 O         6.504898        8.164862        7.839425
 O         6.511978       12.719788        7.838550
 O         1.301548        9.032091        7.798590
 O         1.372307        1.811597        3.356912
 O         5.227196        4.485788        1.133863
 O         6.534689        5.425107        3.359710
 O         5.207068        4.530037        5.576635
 O         2.635648        0.865467        5.611924
 O         2.626906        5.459513        5.627752
 O         5.238313        1.752497        1.094391
 O         5.202302        1.793936        5.580477
 O         1.319824        4.513863        7.829995
 O         1.322433        4.547391        3.386262
 O         2.639246        5.379981        1.127344
 O         2.636716        0.923262        1.112926
 O         6.457774        0.853574        3.361992
 O         6.510663        0.859078        7.789659
 O         6.465542        5.426692        7.833341
 O         1.322421        1.769179        7.834585
 O         9.026836        1.801703        3.352204
 O        12.954708        4.639431        1.146434
 O        14.268188        5.432351        3.379415
 O        12.958103        4.464560        5.586717
 O        10.391660        0.861127        5.550030
 O        10.372825        5.391053        5.587941
 O        12.660024        1.994286        1.910949
 O        12.976465        1.737449        5.637458
 O         9.047860        4.504754        7.821701
 O         9.111817        4.524708        3.326646
 O        10.344972        5.469182        1.073927
 O        10.261418        0.825007        1.093196
 O        14.335265        0.782350        3.492131
 O        14.284970        0.835630        7.859160
 O        14.256332        5.398428        7.792526
 O         9.088752        1.772535        7.770515
 O         1.307185        1.764742       12.250829
 O         5.203852        4.467534       10.076720
 O         6.502551        5.380500       12.308278
 O         5.212464        4.493583       14.546418
 O         2.645504        0.923909       14.485780
 O         2.617869        5.400712       14.542300
 O         5.206478        1.735049       10.022735
 O         5.235953        1.766651       14.508773
 O         1.328045        4.515777       16.799326
 O         1.304887        4.503641       12.304392
 O         2.618272        5.398400       10.077641
 O         2.617565        0.829050       10.044992
 O         6.513576        0.853788       12.261524
 O         6.473183        0.846081       16.768625
 O         6.469233        5.403819       16.804903
 O         1.420799        1.763060       16.767378
 O         9.093466        9.057840       12.320528
 O        12.953882       11.788606       10.019439
 O        14.238043       12.694096       12.275443
 O        12.885761       11.764361       14.485126
 O        10.357617        8.115813       14.555120
 O        10.311261       12.700442       14.534882
 O        12.975377        9.048913       10.078861
 O        12.944247        9.010647       14.533762
 O         9.076057       11.791021       16.796108
 O         9.101260       11.797299       12.281322
 O        10.374357       12.737249       10.057920
 O        10.389045        8.170998       10.082445
 O        14.271194        8.128889       12.302022
 O        14.197935        8.080994       16.807594
 O        14.170967       12.546498       16.792765
 O         9.088598        9.052169       16.800350
 O         1.333128        9.052314       12.264557
 O         5.211686       11.787565       10.070211
 O         6.538955       12.721620       12.255598
 O         5.256481       11.787312       14.474116
 O         2.627237        8.143232       14.498841
 O         2.714032       12.763650       14.457860
 O         5.205743        9.054181       10.077682
 O         5.232746        9.036562       14.519950
 O         1.823663       11.737984       16.908806
 O         1.307054       11.803118       12.273808
 O         2.617712       12.680476       10.043676
 O         2.621464        8.139506       10.020458
 O         6.530359        8.108782       12.288312
 O         6.502713        8.148377       16.807201
 O         6.495971       12.700673       16.761625
 O         1.304458        8.945784       16.737171
 H         9.101800        2.746398       12.246180
 H         9.538919        1.493518       11.448586
 H        13.378021        4.843272        9.225301
 H        12.035717        4.850452       10.000404
 H        13.785003        5.099728       11.478415
 H        14.237439        6.348980       12.265942
 H        12.952599        3.490211       14.491488
 H        13.404010        4.762329       13.737596
 H        10.290368       14.481414       14.496144
 H         9.863144        1.140388       13.705882
 H        11.285068        5.046203       14.573034
 H         9.944229        5.062994       15.351613
 H        12.950136        2.743269        9.996704
 H        13.417139        1.471434        9.242258
 H        12.008000        1.408800       14.459576
 H        13.335050        1.403225       13.661305
 H         8.150723        4.804990       16.786718
 H         9.046034        3.545989       16.785452
 H         8.193604        4.833287       12.327778
 H         9.536358        4.831791       13.100153
 H        10.351428        6.395837       10.073790
 H         9.915391        5.131884       10.846738
 H        11.274684        1.198133        9.997324
 H         9.938190        1.191257        9.218345
 H        13.808814        1.180890       11.438684
 H        15.139767        1.166174       12.226560
 H        13.917904        1.098838       15.839605
 H        15.150764        5.036678       16.765539
 H        13.817535        5.006467       15.979842
 H         8.147820        1.440393       16.737789
 H         9.484365        1.449159       15.965743
 H         8.196013        8.747521        3.392752
 H         9.533744        8.722433        4.167577
 H        11.990509       12.103762        1.106264
 H        12.881713       10.831881        1.119215
 H        14.279039       13.663478        3.356047
 H        13.791541       12.429953        2.550524
 H        13.436868       12.091743        4.772511
 H        12.997638       10.827479        5.553768
 H        10.367627        7.165987        5.621085
 H         9.925816        8.428393        6.401550
 H         9.980108       12.381994        6.400880
 H        11.316239       12.375881        5.616766
 H        13.412341        8.696472        0.346419
 H        13.448061        8.722508        1.891911
 H        13.395786        8.725291        6.385773
 H        12.062078        8.723749        5.607459
 H         9.529693       12.138884        8.634466
 H         8.199090       12.126834        7.850241
 H         9.574723       12.112092        4.168429
 H         9.117856       10.850259        3.402164
 H        10.310875       13.680998        1.102925
 H         9.893616       12.424678        1.901796
 H        11.283231        8.503528        1.143184
 H         9.939610        8.521074        1.911911
 H        14.275334        7.193598        3.392662
 H        13.827855        8.462626        4.146977
 H        14.230490        7.165756        7.835609
 H        13.799290        8.426346        8.626287
 H        15.176386       12.362159        7.793325
 H        13.850064       12.378439        6.997954
 H         9.557165        8.764522        8.643067
 H         9.110819       10.017348        7.857455
 H         1.766872        8.724030        2.523585
 H         0.442216        8.736737        3.319367
 H         4.393740       12.203839        1.157107
 H         5.680762       12.135190        0.301568
 H         7.444176       12.397664        3.367903
 H         6.128442       12.382607        2.559668
 H         4.316209       12.167542        5.574507
 H         5.660143       12.162261        4.801192
 H         3.531283        8.532139        5.564991
 H         2.208475        8.508108        4.758813
 H         2.164181       12.379662        6.380083
 H         2.143609       12.399232        4.838149
 H         5.191531       10.026127        1.123484
 H         4.302043        8.758150        1.109443
 H         5.671298        8.797453        6.399669
 H         5.234072       10.064640        5.627641
 H         1.329545       10.808363        7.838724
 H         1.784417       12.066425        8.616369
 H         1.317636       10.861488        3.352082
 H         0.400474       12.106572        3.360811
 H         2.223330       12.510061        2.009366
 H         2.666304       13.785380        1.230517
 H         2.635390        7.132762        1.101943
 H         2.164844        8.347113        0.280012
 H         6.040759        8.503311        4.137940
 H         6.040415        8.489970        2.592556
 H         6.070223        8.490015        8.635587
 H         7.413957        8.482693        7.867122
 H         6.057274       12.423040        7.042383
 H         6.503809       13.682480        7.809886
 H         1.735847        8.724278        6.995607
 H         0.397039        8.702392        7.780255
 H         1.823421        1.506240        4.149660
 H         1.357089        2.773536        3.396341
 H         5.254714        3.522693        1.141234
 H         5.694923        4.788419        1.919038
 H         6.543328        6.388118        3.359671
 H         7.454570        5.137235        3.348014
 H         5.209288        3.566500        5.558991
 H         5.678058        4.822313        4.788320
 H         2.612732       14.504766        5.626053
 H         2.166209        1.165181        6.397834
 H         3.539132        5.151856        5.598857
 H         2.656809        6.422319        5.606956
 H         4.321104        1.456143        1.075060
 H         5.654302        1.425321        0.289210
 H         5.620593        1.449893        4.782568
 H         4.298633        1.458639        5.582771
 H         1.780750        4.836308        8.611880
 H         1.798364        4.858946        7.067809
 H         1.750653        4.891146        4.176371
 H         0.412396        4.865132        3.396824
 H         3.540364        5.040966        1.157129
 H         2.194042        5.069078        1.922773
 H         2.168075        1.272824        1.879710
 H         2.167480        1.228544        0.325910
 H         6.030099        1.142449        2.547694
 H         6.477013       14.492738        3.339787
 H         7.415191        1.190326        7.767558
 H         6.071566        1.197810        7.001300
 H         6.017802        5.132898        7.032272
 H         6.462995        6.389772        7.817400
 H         1.786249        1.469272        8.624313
 H         1.334413        2.732127        7.849016
 H         8.127064        1.464223        3.401968
 H         9.502342        1.459314        4.115763
 H        12.050734        4.961695        1.086583
 H        13.390710        4.863215        0.319631
 H        13.795758        5.143065        2.588343
 H        13.790325        5.071013        4.133059
 H        12.042826        4.762713        5.586846
 H        12.938566        3.500280        5.586346
 H        10.416104       14.501373        5.565668
 H        11.309818        1.156497        5.557677
 H         9.883718        5.064455        6.349926
 H         9.915707        5.073941        4.800498
 H        12.777683        2.868526        1.543804
 H        11.899358        1.594734        1.495690
 H        13.430403        1.421928        6.425232
 H        13.481788        1.397307        4.887865
 H         8.143833        4.836272        7.844769
 H         9.486654        4.839846        8.611514
 H         9.106549        3.561024        3.303063
 H         9.561776        4.825531        2.529377
 H         9.892331        5.158229        0.283235
 H        10.320868        6.431485        1.059046
 H         9.784545        1.178100        1.849506
 H         9.842406        1.177342        0.303263
 H        15.218425        1.147874        3.403350
 H        13.775705        1.213433        2.823195
 H        14.307513       14.474744        7.841385
 H        15.198686        1.140219        7.849424
 H        13.825466        5.055388        7.000795
 H        15.163639        5.075532        7.785687
 H         9.089850        2.735757        7.763081
 H         9.553889        1.480282        6.978246
 H         1.760141        1.479333       13.051972
 H         1.309938        2.727765       12.272547
 H         5.646178        4.787727        9.283468
 H         5.217965        3.505059       10.033392
 H         6.034763        5.037416       11.539279
 H         6.031349        5.063610       13.087283
 H         5.238029        3.530109       14.556771
 H         5.654471        4.793293       15.348063
 H         2.212621        1.212813       15.300346
 H         2.652191       14.565568       14.498864
 H         3.530898        5.093997       14.536772
 H         2.649765        6.362657       14.519313
 H         5.640820        1.407760        9.227362
 H         4.303599        1.399924       10.011696
 H         4.321857        1.461780       14.476243
 H         5.668581        1.441025       13.712205
 H         1.797577        4.830153       17.577518
 H         1.801597        4.849519       16.030724
 H         1.734453        4.825646       13.104203
 H         0.396561        4.824255       12.321164
 H         2.174155        5.081817       10.872202
 H         3.517720        5.055684       10.103096
 H         2.159763        1.135282       10.836679
 H         2.597822       14.468722       10.064495
 H         6.070840        1.171672       11.467431
 H         7.411558        1.203846       12.236670
 H         6.026961        1.142950       15.967823
 H         6.471977       14.485478       16.745930
 H         6.466001        6.366778       16.825048
 H         6.027297        5.107807       17.607712
 H         1.361950        2.722736       16.780745
 H         0.512043        1.428794       16.694757
 H         9.518685        8.717276       13.115643
 H         8.192224        8.716660       12.321595
 H        13.392827       12.116762        9.227207
 H        12.054177       12.131146       10.006877
 H        13.791625       12.389477       11.478372
 H        14.226557       13.657435       12.241219
 H        13.368012       12.106827       13.724254
 H        13.343187       12.077422       15.269602
 H        10.385653        7.152245       14.551803
 H        11.273182        8.415564       14.543704
 H         9.894058       12.373799       15.340073
 H        11.216784       12.372351       14.537819
 H        12.985954       10.012101       10.078747
 H        13.440047        8.761053       10.872542
 H        13.385288        8.721410       15.339414
 H        12.939702        9.973430       14.541484
 H         9.094306       10.828115       16.816481
 H         9.521238       12.097051       17.594620
 H         9.527371       12.091937       13.095180
 H         9.102031       10.834052       12.305697
 H         9.932148       12.430608       10.857473
 H        10.358009       13.700226       10.074881
 H         9.957346        8.495543       10.880759
 H        11.298731        8.488331       10.107258
 H        13.838529        8.446792       13.101833
 H        15.176200        8.456835       12.321225
 H        15.115817        8.360208       16.779835
 H        14.210565        7.115489       16.790218
 H        13.709732       12.292019       17.606203
 H        14.342717       14.455816       16.634691
 H         9.563474        8.737404       17.577280
 H         9.553887        8.711710       16.028559
 H         1.335915       10.014590       12.246449
 H         1.781899        8.755018       11.465665
 H         5.690779       12.126399       10.835270
 H         5.672388       12.119894        9.292319
 H         7.455313       12.422161       12.256348
 H         6.555989       13.685340       12.261890
 H         5.729969       12.087231       13.689913
 H         5.260611       10.824175       14.457616
 H         2.197692        8.473756       13.701577
 H         3.532636        8.472067       14.486528
 H         2.363024       12.450145       15.282977
 H         3.619491       12.428881       14.426151
 H         4.289837        8.756448       10.057927
 H         5.186221       10.017550       10.084444
 H         5.706777        8.684437       13.758960
 H         5.689790        8.721125       15.306409
 H         2.148963       12.130578       17.737831
 H         0.400433       12.129348       12.296305
 H         1.750667       12.144821       13.054626
 H         3.525053       12.358898       10.079334
 H         2.173678       12.358284       10.835704
 H         2.154566        8.418549        9.225452
 H         2.614003        7.176335       10.025383
 H         6.056219        8.418584       11.509408
 H         6.508061        7.145507       12.264761
 H         7.409547        8.473305       16.829870
 H         6.068128        8.486650       17.596127
 H         7.403101       12.374606       16.757431
 H         6.081015       12.364775       15.960726
 H         1.377325        9.891099       16.767414
 H         1.764779        8.667244       15.934462
 H        15.013415       12.123918       16.828421
