383
 generated by VMD
 O         9.028759        1.610376       12.329701
 O        13.018147        4.513112       10.066978
 O        14.303719        5.396054       12.326136
 O        13.077469        4.469792       14.582795
 O        10.426434        0.753455       14.558675
 O        10.569837        5.429043       14.451734
 O        12.991939        1.754798       10.054605
 O        12.987930        1.724091       14.566576
 O         8.759694        4.430332       16.444344
 O         8.731109        4.373645       11.973544
 O        10.413592        5.462421        9.983249
 O        10.396343        0.792509       10.047100
 O        14.285034        0.835455       12.311079
 O        14.266026        0.834511       16.816315
 O        14.294966        5.424188       16.839001
 O         9.073178        1.676447       16.773678
 O         9.080867        9.102963        3.363179
 O        12.947788       11.845125        1.112819
 O        14.256137       12.719046        3.338211
 O        12.980412       11.802187        5.577524
 O        10.404717        8.139269        5.560532
 O        10.400216       12.717853        5.539639
 O        13.003319        9.128002        1.104703
 O        12.989052        9.061434        5.565711
 O         9.096064       11.796797        7.765076
 O         9.043600       11.814994        3.348520
 O        10.348959       12.699147        1.100151
 O        10.433812        8.314415        1.154387
 O        14.279883        8.189435        3.329128
 O        14.282688        8.156809        7.792804
 O        14.271969       12.719418        7.811439
 O         9.092361        9.060767        7.770240
 O         1.345085        9.080420        3.314357
 O         5.182672       11.824554        1.106486
 O         6.470798       12.702834        3.357352
 O         5.177782       11.783156        5.598183
 O         2.623066        8.173018        5.564992
 O         2.596051       12.710240        5.563735
 O         5.197556        9.082027        1.107947
 O         5.213507        9.048101        5.596034
 O         1.323840       11.811592        7.810790
 O         1.298182       11.813917        3.327052
 O         2.603828       12.753816        1.108432
 O         2.615406        8.145896        1.077884
 O         6.506521        8.171042        3.345073
 O         6.519368        8.115210        7.814522
 O         6.511862       12.707746        7.806623
 O         1.332167        9.081550        7.798250
 O         1.316740        1.785654        3.337690
 O         5.159904        4.518221        1.105591
 O         6.441367        5.418400        3.346134
 O         5.192475        4.489785        5.582870
 O         2.588022        0.843466        5.566046
 O         2.624539        5.433105        5.572962
 O         5.189043        1.771623        1.073951
 O         5.181397        1.745748        5.549170
 O         1.309720        4.506132        7.786322
 O         1.323140        4.509381        3.350411
 O         2.579147        5.410946        1.091599
 O         2.606914        0.888015        1.100096
 O         6.468679        0.836967        3.307510
 O         6.497246        0.846553        7.789002
 O         6.494610        5.370071        7.822917
 O         1.332782        1.767361        7.824697
 O         9.051606        1.703926        3.316780
 O        13.090077        4.425361        1.156738
 O        14.319080        5.443801        3.392878
 O        12.973940        4.515832        5.580541
 O        10.418072        0.845421        5.540838
 O        10.389339        5.410141        5.598507
 O        12.983995        1.724431        1.109704
 O        12.997126        1.775726        5.573761
 O         9.092793        4.475140        7.820445
 O         9.019439        4.448684        3.472279
 O        10.690706        5.772735        1.682303
 O        10.391781        0.840009        1.097523
 O        14.281509        0.840949        3.357783
 O        14.285179        0.856791        7.809484
 O        14.271272        5.427000        7.808449
 O         9.112049        1.722475        7.792295
 O         1.326387        1.762440       12.295397
 O         5.109969        4.509423       10.041579
 O         6.315151        5.468604       12.312510
 O         5.107307        4.516803       14.560206
 O         2.584917        0.842272       14.557184
 O         2.566602        5.442048       14.551906
 O         5.206991        1.763368       10.035971
 O         5.174645        1.757538       14.566493
 O         1.314597        4.491533       16.808804
 O         1.341505        4.503242       12.294908
 O         2.551624        5.448723       10.028019
 O         2.627815        0.851743       10.057161
 O         6.431148        0.811904       12.315873
 O         6.486813        0.847110       16.796034
 O         6.359268        5.466789       16.754890
 O         1.312264        1.750294       16.795494
 O         9.108724        9.089146       12.285114
 O        13.008504       11.791280       10.060678
 O        14.268722       12.707097       12.323298
 O        13.008602       11.788812       14.575478
 O        10.405588        8.198648       14.540484
 O        10.396823       12.624509       14.557750
 O        13.019925        9.061685       10.054324
 O        13.008131        9.065484       14.553311
 O         9.067358       11.777028       16.804457
 O         9.097298       11.828002       12.275136
 O        10.405907       12.669433       10.011850
 O        10.416183        8.224074       10.010701
 O        14.292567        8.148670       12.309247
 O        14.279731        8.167955       16.809296
 O        14.280855       12.708387       16.830997
 O         9.078134        9.051736       16.801329
 O         1.338052        9.085751       12.303050
 O         5.190809       11.777267       10.035775
 O         6.478988       12.680320       12.286415
 O         5.195596       11.832718       14.555929
 O         2.630240        8.178997       14.533329
 O         2.600383       12.707689       14.559814
 O         5.205270        9.046200       10.034314
 O         5.214837        9.097133       14.550274
 O         1.322486       11.808430       16.810863
 O         1.318178       11.816866       12.313100
 O         2.616717       12.706679       10.063855
 O         2.597251        8.186067       10.047067
 O         6.486699        8.200067       12.312712
 O         6.475261        8.175818       16.786823
 O         6.488690       12.702688       16.803396
 O         1.335065        9.071903       16.775810
 H         8.115787        1.295668       12.336572
 H         8.963639        2.556966       12.284528
 H        13.448908        4.834725       10.867026
 H        12.121472        4.856633       10.075492
 H        15.222034        5.101779       12.304610
 H        14.322531        6.359160       12.326579
 H        13.058260        3.506514       14.562644
 H        13.533412        4.763255       13.785070
 H         9.941507        1.039505       13.780299
 H        10.416000       14.391726       14.547715
 H        11.474799        5.095455       14.535832
 H         9.416526        4.760456       15.840080
 H        12.079473        1.448169       10.057880
 H        12.963408        2.716987       10.060514
 H        13.426229        1.400512       13.772382
 H        12.086923        1.382963       14.540883
 H         8.924855        3.497031       16.572048
 H        10.254783        5.079162       13.633819
 H         7.846160        4.760814       12.093146
 H         9.965886        5.115132        9.200188
 H         9.901757        5.151890       10.719632
 H        10.409600       14.430295       10.037941
 H         9.924968        1.047881       10.843810
 H        15.188614        1.169992       12.287933
 H        13.847531        1.167878       11.520708
 H        13.794013        1.159015       16.041702
 H        13.799275        1.167251       17.591938
 H        13.852637        5.112962       16.042849
 H        14.271426        6.386647       16.814299
 H         9.563139        1.334053       16.020815
 H         9.553566        1.408347       17.562553
 H         9.568774        8.822702        2.577591
 H         9.556612        8.747934        4.121576
 H        12.023398       12.116665        1.106347
 H        12.952894       10.880171        1.106141
 H        14.258794       13.682816        3.328568
 H        13.781362       12.433496        2.549140
 H        13.447649       12.131749        6.352847
 H        13.448792       12.136323        4.804693
 H        11.321166        8.434078        5.558733
 H        10.420176        7.175215        5.564566
 H        11.313097       12.410274        5.554688
 H        10.433893       13.681012        5.540595
 H        13.421748        8.780038        0.311079
 H        12.085206        8.823660        1.095259
 H        12.988394       10.024450        5.553702
 H        13.447234        8.776147        4.766995
 H         8.193018       12.132589        7.759899
 H         9.527777       12.142528        6.976371
 H         9.066718       10.850742        3.381378
 H         9.530006       12.126057        4.119859
 H         9.883152       12.369006        0.324226
 H         9.871410       12.377956        1.872339
 H        10.481915        7.350436        1.270735
 H         9.952127        8.496160        0.343977
 H        15.186947        8.509614        3.301336
 H        13.840898        8.517622        2.535838
 H        13.845893        8.487150        6.999522
 H        15.185886        8.490572        7.773987
 H        14.259610       13.682388        7.834248
 H        13.827096       12.415433        8.610351
 H         9.558250        8.758141        6.982255
 H         9.092772       10.023868        7.741408
 H         1.810022        8.750688        4.090790
 H         1.808244        8.738075        2.542103
 H         4.283509       12.169109        1.122302
 H         5.616261       12.144074        1.905328
 H         6.038311       12.369840        4.150489
 H         7.377903       12.375510        3.376968
 H         5.164363       10.819904        5.604062
 H         4.261628       12.079002        5.588102
 H         2.184044        8.501863        6.357480
 H         3.530668        8.494432        5.597811
 H         2.588984       13.673563        5.546180
 H         2.134196       12.414771        4.771653
 H         5.160803       10.044165        1.106404
 H         4.287048        8.769308        1.098993
 H         5.683099        8.732928        4.815556
 H         5.686397        8.706320        6.362699
 H         1.751177       12.140507        7.012432
 H         0.418498       12.140779        7.796974
 H         1.296409       10.850451        3.320554
 H         0.377320       12.097929        3.327316
 H         2.591397       13.717018        1.127130
 H         2.139190       12.450243        1.895601
 H         2.162538        8.448034        0.283495
 H         2.593280        7.182546        1.060385
 H         6.069403        8.508004        2.556202
 H         7.413397        8.496517        3.322666
 H         7.433418        8.420174        7.803399
 H         6.542058        7.152381        7.817791
 H         6.034069       12.407000        7.026175
 H         6.491998       13.670813        7.788362
 H         1.778261        8.786660        8.599940
 H         1.334977       10.045003        7.820451
 H         1.326201        2.749780        3.324092
 H         1.775787        1.493374        2.542654
 H         4.239971        4.803119        1.101303
 H         5.153727        3.555906        1.093749
 H         6.467184        6.380053        3.320260
 H         5.995206        5.129202        2.542587
 H         5.198308        3.527465        5.547331
 H         5.637578        4.801032        4.785734
 H         2.118543        1.191058        4.799731
 H         2.133628        1.174833        6.348084
 H         2.654548        6.395822        5.574881
 H         3.536853        5.122638        5.581619
 H         5.665179        1.444322        0.302371
 H         5.654860        1.434813        1.847018
 H         4.276359        1.417657        5.531217
 H         5.616656        1.412768        4.756696
 H         1.753960        4.838314        6.998542
 H         0.403999        4.834371        7.758989
 H         0.422045        4.852264        3.392375
 H         1.779038        4.841518        4.131157
 H         2.115768        5.065869        0.319639
 H         2.111272        5.088148        1.869245
 H         3.515411        1.209054        1.069350
 H         2.170811        1.203610        0.300771
 H         7.388694        1.126281        3.314209
 H         6.486098       14.476063        3.322411
 H         6.036886        1.185492        8.563723
 H         6.023964        1.176463        7.017873
 H         6.028796        5.049296        7.042423
 H         5.997320        5.061926        8.587530
 H         1.796996        1.468157        8.614196
 H         1.341276        2.730474        7.839181
 H         9.532515        1.406408        2.536299
 H         9.544955        1.390262        4.081222
 H        13.561244        4.783011        1.914839
 H        13.507924        4.789217        0.371278
 H        13.826457        5.145516        4.165379
 H        14.273609        6.405193        3.383492
 H        13.400697        4.849537        6.377056
 H        12.064404        4.835204        5.596568
 H        11.317183        1.189950        5.564241
 H         9.979525        1.164489        6.336591
 H         9.929384        5.083896        6.377928
 H         9.900935        5.063957        4.840725
 H        13.016348        2.689740        1.134748
 H        13.442151        1.421087        1.899969
 H        13.000295        2.739206        5.595357
 H        13.449082        1.477197        6.370545
 H         9.084237        3.511703        7.811208
 H         8.172546        4.761137        7.823888
 H         8.998893        3.490656        3.399114
 H         8.113054        4.760568        3.406459
 H        11.447581        5.238378        1.453265
 H        10.106239        5.251481        2.228665
 H        10.407451       14.479809        1.093761
 H        11.307661        1.138146        1.102709
 H        13.845117        1.181199        4.147102
 H        15.181820        1.182966        3.367617
 H        13.848369        1.185304        8.602758
 H        15.192038        1.181239        7.838452
 H        13.837942        5.128471        8.615230
 H        14.266485        6.390645        7.828892
 H         9.537528        1.384210        8.587219
 H         8.204874        1.399768        7.805355
 H         1.347180        2.725472       12.280337
 H         1.792878        1.463091       11.507639
 H         4.202877        4.836068       10.025259
 H         5.502850        4.867767       10.842686
 H         5.884157        5.166557       13.121575
 H         6.359557        6.431095       12.345222
 H         5.551180        4.831771       15.359982
 H         5.149485        3.555114       14.577710
 H         2.146018        1.147921       13.756166
 H         2.574135       14.481474       14.531111
 H         3.465455        5.091596       14.576150
 H         2.125935        5.108669       15.340589
 H         5.187144        2.725774       10.066289
 H         5.644440        1.464475       10.839820
 H         5.618231        1.431304       15.357257
 H         4.271218        1.426133       14.594037
 H         1.286158        3.528936       16.795927
 H         0.400857        4.799960       16.816257
 H         1.794104        4.852052       11.519554
 H         1.798292        4.843339       13.072506
 H         2.550543        6.411858       10.007685
 H         2.094705        5.148404        9.234459
 H         2.644635       14.490749       10.056350
 H         3.545698        1.144549       10.050634
 H         6.408816       14.450616       12.323858
 H         5.981756        1.112041       13.113993
 H         7.408030        1.135790       16.785990
 H         6.506355       14.486866       16.798908
 H         7.254571        5.097439       16.684990
 H         5.976491        5.127986       17.568909
 H         1.737931        1.419334       15.996705
 H         0.408834        1.415571       16.787247
 H         9.560316        8.804868       11.483984
 H         9.112858       10.052700       12.270094
 H        13.034153       10.827851       10.078091
 H        13.446626       12.094934       10.862711
 H        14.257442       13.670525       12.338817
 H        13.821212       12.409102       13.122721
 H        13.037247       10.825447       14.588186
 H        13.451897       12.092669       15.374417
 H         9.951606        8.495432       13.744064
 H        10.434893        7.239889       14.501139
 H         9.971053       12.325708       13.747580
 H        11.306031       12.306943       14.537618
 H        12.105411        8.759648       10.023782
 H        13.445578        8.733694        9.254968
 H        12.094707        8.760667       14.531046
 H        13.433771        8.731801       13.755966
 H         9.078718       10.812652       16.788992
 H         9.532973       12.064996       16.012156
 H         9.526563       12.146288       11.474088
 H         8.188088       12.144145       12.256288
 H         9.976992       12.343130        9.213473
 H        11.310638       12.338993       10.007332
 H         9.951035        8.520909        9.219720
 H        10.405853        7.263815        9.983045
 H        13.860153        8.467210       11.509679
 H        15.192767        8.491152       12.291413
 H        13.846915        8.487825       16.010790
 H        15.185767        8.492755       16.779131
 H        14.265990       13.672191       16.835934
 H        13.801856       12.422954       17.616961
 H         8.176259        8.714828       16.779221
 H         9.516617        8.727037       16.009506
 H         1.796980        8.783803       13.094748
 H         1.338085       10.048780       12.329827
 H         5.662344       12.089312        9.256197
 H         5.213606       10.814131       10.007191
 H         6.009154       12.341189       11.517212
 H         6.017032       12.355472       13.066746
 H         5.634333       12.159791       15.349151
 H         4.289572       12.158236       14.580909
 H         2.634838        7.215353       14.541666
 H         3.549590        8.466702       14.540295
 H         2.135861       12.376882       13.783238
 H         2.128132       12.380398       15.332776
 H         5.672862        8.738787       10.817938
 H         5.681526        8.700114        9.271679
 H         5.211822       10.060150       14.577435
 H         5.663199        8.796774       15.349940
 H         1.761434       12.148754       17.597374
 H         0.415201       12.133488       16.840677
 H         0.411865       12.144675       12.293875
 H         1.753002       12.141555       11.517273
 H         3.517398       12.364707       10.039726
 H         2.180781       12.385827        9.267430
 H         3.509480        8.494328       10.063940
 H         2.174728        8.516306       10.847822
 H         7.397114        8.512314       12.322455
 H         6.063709        8.547390       13.106976
 H         6.031220        8.478645       17.584843
 H         6.434363        7.210846       16.798548
 H         7.390791       12.364258       16.816439
 H         6.056193       12.381531       17.601477
 H         1.346143       10.035028       16.771156
 H         1.797648        8.782931       15.981783
