383
 generated by VMD
 O         9.095175        1.825318       12.321054
 O        12.955612        4.528783       10.072987
 O        14.272779        5.414800       12.319203
 O        12.975495        4.521489       14.570153
 O        10.389774        0.871064       14.562315
 O        10.377135        5.420913       14.591738
 O        12.959329        1.790905       10.005588
 O        12.982539        1.773976       14.519436
 O         9.109389        4.493174       16.840546
 O         9.062680        4.562716       12.339923
 O        10.360036        5.429131       10.084008
 O        10.325025        0.958220       10.032459
 O        14.276854        0.882646       12.255221
 O        14.268421        0.844427       16.757862
 O        14.281763        5.412236       16.818542
 O         9.087253        1.760858       16.800177
 O         9.087053        9.061547        3.331142
 O        12.987159       11.800966        1.111246
 O        14.264222       12.712899        3.357034
 O        12.965965       11.796755        5.583611
 O        10.414411        8.111182        5.544668
 O        10.392928       12.710131        5.495126
 O        12.982851        9.067545        1.071856
 O        12.982856        9.042056        5.582692
 O         8.998470       11.755443        7.533430
 O         9.078698       11.798272        3.311954
 O        10.407502       12.711345        1.121800
 O        10.398088        8.149712        1.106819
 O        14.275252        8.165522        3.317383
 O        14.292779        8.162028        7.821886
 O        14.281983       12.723347        7.796999
 O         9.084726        8.970009        7.800210
 O         1.322047        9.075455        3.306405
 O         5.215020       11.789369        1.129058
 O         6.484965       12.712608        3.359107
 O         5.155645       11.801901        5.566410
 O         2.598398        8.142045        5.558114
 O         2.578745       12.711883        5.563515
 O         5.244341        9.052789        1.096343
 O         5.190737        9.051222        5.574477
 O         1.330868       11.831431        7.824303
 O         1.304986       11.805079        3.326447
 O         2.622997       12.706914        1.105367
 O         2.658368        8.144521        1.097389
 O         6.509046        8.142319        3.347540
 O         6.490853        8.163611        7.822579
 O         6.388336       12.737804        7.838174
 O         1.340533        9.088740        7.794346
 O         1.286688        1.749407        3.320967
 O         5.206255        4.515882        1.110585
 O         6.460536        5.411204        3.367579
 O         5.175824        4.505093        5.607451
 O         2.593720        0.852638        5.557628
 O         2.589362        5.398074        5.604033
 O         5.197481        1.772432        1.067264
 O         5.179131        1.763656        5.541916
 O         1.312973        4.529679        7.863190
 O         1.309231        4.486955        3.355830
 O         2.607684        5.408399        1.119949
 O         2.608291        0.851834        1.091722
 O         6.481008        0.846853        3.309010
 O         6.481045        0.895897        7.795285
 O         6.472390        5.433731        7.843331
 O         1.343892        1.780469        7.812824
 O         9.065668        1.741882        3.303847
 O        12.971440        4.508408        1.112614
 O        14.262917        5.433259        3.348887
 O        12.965206        4.528450        5.587459
 O        10.377617        0.879994        5.533573
 O        10.363635        5.378973        5.550132
 O        12.968811        1.772861        1.050417
 O        12.967270        1.796195        5.555116
 O         9.070300        4.558687        7.826776
 O         9.034396        4.472999        3.342738
 O        10.384819        5.412103        1.148626
 O        10.394374        0.847079        1.087222
 O        14.226465        0.851383        3.313648
 O        14.283504        0.866236        7.779843
 O        14.256904        5.423219        7.839793
 O         9.069083        1.826719        7.751176
 O         1.333247        1.795604       12.303544
 O         5.185781        4.520448       10.080798
 O         6.454695        5.422772       12.338976
 O         5.189340        4.493060       14.585169
 O         2.617083        0.861136       14.538569
 O         2.607997        5.406629       14.582358
 O         5.219749        1.779360       10.064314
 O         5.211119        1.754583       14.541164
 O         1.326940        4.475800       16.826117
 O         1.326221        4.524884       12.324883
 O         2.612422        5.454801       10.100673
 O         2.631056        0.891209       10.061474
 O         6.518196        0.859596       12.300749
 O         6.499436        0.836158       16.783686
 O         6.519651        5.399365       16.808695
 O         1.324586        1.734085       16.788902
 O         9.080564        9.043886       12.337951
 O        13.054320       11.739550       10.046894
 O        14.302595       12.721880       12.305552
 O        12.984560       11.801133       14.551832
 O        10.400451        8.162774       14.574865
 O        10.390486       12.715781       14.598781
 O        13.024173        9.033378       10.088922
 O        12.994278        9.056052       14.555758
 O         9.105370       11.803988       16.841543
 O         9.035976       11.770017       12.394588
 O        10.582800       12.860008       10.452950
 O        10.408956        8.158681       10.092807
 O        14.319768        8.149499       12.330276
 O        14.296926        8.156285       16.786032
 O        14.271077       12.703623       16.806662
 O         9.111460        9.063440       16.814789
 O         1.377792        9.066056       12.315430
 O         5.177717       11.820706       10.092728
 O         6.470529       12.715229       12.340556
 O         5.192466       11.817498       14.597278
 O         2.644559        8.143810       14.558927
 O         2.605624       12.720696       14.587089
 O         5.225717        9.073682       10.066016
 O         5.219336        9.076920       14.568104
 O         1.324036       11.780192       16.819641
 O         1.359688       11.817982       12.320484
 O         2.610195       12.749079       10.068564
 O         2.641678        8.194351       10.048800
 O         6.496741        8.152662       12.323374
 O         6.528766        8.150558       16.793612
 O         6.509734       12.695942       16.838945
 O         1.354130        9.036872       16.806028
 H         9.083494        2.788347       12.357390
 H         9.554691        1.521038       13.110386
 H        12.038511        4.823757       10.083122
 H        12.937311        3.566163       10.051414
 H        15.175121        5.078122       12.294058
 H        13.828749        5.091854       11.528025
 H        13.440935        4.855635       13.796024
 H        13.449927        4.846418       15.342704
 H        11.305850        1.169121       14.549491
 H        10.412715       14.510981       14.569106
 H         9.953383        5.083941       15.388445
 H        11.281024        5.088317       14.596688
 H        12.047999        1.486587        9.978217
 H        13.393432        1.463636        9.210285
 H        13.436808        1.492623       13.718822
 H        12.995872        2.737364       14.522791
 H         9.562432        4.788205       17.637470
 H         9.116192        3.529700       16.850569
 H         8.153112        4.878461       12.363542
 H         9.496423        4.886391       13.136615
 H        10.371408        6.392813       10.105273
 H         9.901106        5.144014       10.881352
 H         9.895368        1.279303       10.833187
 H        10.335882       14.611238       10.104270
 H        14.271877       14.522491       12.248249
 H        13.812914        1.169734       11.462371
 H        14.251920       14.483389       16.754801
 H        13.814390        1.137690       15.960809
 H        15.179649        5.064613       16.843334
 H        13.836764        5.093262       17.610764
 H         8.183356        1.429026       16.773912
 H         9.525820        1.441583       16.004099
 H         9.552575        8.769925        2.540095
 H         9.095465       10.025308        3.317239
 H        13.418032       12.125334        1.909541
 H        12.081179       12.128839        1.135052
 H        14.237875       13.675669        3.367675
 H        13.802691       12.410140        4.147208
 H        12.048329       12.095268        5.564136
 H        12.946153       10.834175        5.580636
 H         9.940522        8.432260        4.770469
 H        10.380959        7.149047        5.513533
 H         9.885154       12.387359        6.257706
 H        10.381496       13.670005        5.537462
 H        12.991999       10.030990        1.061273
 H        13.445729        8.773470        0.280152
 H        13.420687        8.728818        4.784609
 H        12.081861        8.700635        5.553708
 H         8.100958       12.059237        7.662267
 H         8.173911       12.124431        3.351236
 H         9.529784       12.136922        4.096583
 H        10.389748       13.674157        1.133097
 H         9.927710       12.412850        1.903664
 H        11.303792        8.476775        1.077749
 H         9.963191        8.474681        0.310696
 H        15.178416        8.500126        3.292998
 H        13.839392        8.490718        2.522336
 H        14.275582        7.198931        7.804017
 H        13.824117        8.458374        7.033442
 H        13.807227       12.387733        7.027765
 H        13.829018       12.375488        8.570769
 H         9.573913        8.649065        7.037035
 H         9.565762        8.689613        8.583424
 H         1.796701        8.776755        2.523646
 H         1.332765       10.038967        3.291475
 H         5.642593       12.123733        1.926124
 H         4.309800       12.117641        1.139800
 H         6.473376       13.675565        3.368160
 H         6.022343       12.416507        4.150892
 H         5.150382       10.839238        5.568884
 H         4.236004       12.087482        5.554132
 H         2.133327        8.477499        4.784608
 H         2.139349        8.491318        6.330244
 H         2.136063       12.421365        6.368947
 H         2.577848       13.674949        5.581042
 H         5.239821       10.016183        1.085728
 H         5.701426        8.764215        0.299155
 H         5.634390        8.725117        4.784384
 H         4.289985        8.711879        5.549233
 H         1.762079       12.165648        8.618604
 H         0.424767       12.158409        7.836258
 H         1.738366       12.131198        4.123234
 H         0.399867       12.135267        3.352809
 H         2.160876       12.366615        0.331578
 H         2.141654       12.387227        1.876368
 H         3.577440        8.432653        1.099231
 H         2.663381        7.181349        1.111271
 H         7.414537        8.472119        3.332367
 H         6.084732        8.470655        2.547306
 H         6.054987        8.497762        7.031641
 H         7.408449        8.459735        7.787113
 H         5.936762       12.445477        7.040797
 H         6.422578       13.698060        7.804560
 H         0.427281        8.782136        7.809976
 H         1.311155       10.051460        7.808097
 H         0.381657        1.421169        3.291180
 H         1.730307        1.421884        2.531002
 H         5.627972        4.839862        1.914344
 H         4.299666        4.840018        1.126203
 H         6.475802        6.374652        3.385044
 H         6.003150        5.122079        4.164701
 H         4.257646        4.797009        5.609037
 H         5.159445        3.542295        5.582833
 H         2.110876        1.175837        4.789503
 H         2.144327        1.197510        6.336986
 H         2.134041        5.118237        6.405781
 H         2.579218        6.361320        5.603551
 H         4.281854        1.473835        1.076792
 H         5.176407        2.735345        1.082220
 H         4.277068        1.426376        5.524265
 H         5.616937        1.435467        4.749401
 H         0.404095        4.848191        7.882963
 H         1.746704        4.866934        8.654196
 H         1.312174        3.523709        3.363846
 H         1.763722        4.775528        4.154482
 H         2.143817        5.071653        0.345608
 H         2.137845        5.077315        1.892769
 H         2.151322        1.139266        0.293313
 H         2.608022       14.490780        1.076516
 H         7.390560        1.164380        3.290251
 H         6.052433        1.179054        2.513169
 H         7.384697        1.225257        7.755219
 H         6.036607        1.212685        7.002143
 H         6.015055        5.123458        7.054643
 H         6.458746        6.397157        7.812052
 H         1.343259        2.742789        7.847871
 H         1.799860        1.479842        8.606852
 H         9.539959        1.425088        4.081572
 H         9.548391        1.419686        2.534976
 H        13.408278        4.837542        1.905586
 H        12.064517        4.832003        1.142898
 H        14.298488        6.396270        3.333905
 H        15.173701        5.120551        3.352481
 H        12.053426        4.837748        5.553275
 H        13.404820        4.865301        4.799235
 H         9.935908        1.220997        6.318430
 H        11.280574        1.212474        5.561969
 H         9.878542        5.033508        4.792692
 H         9.895643        5.085483        6.339096
 H        13.431137        1.474239        0.260224
 H        12.989990        2.735928        1.044814
 H        13.436513        1.487045        6.336926
 H        12.980463        2.759299        5.585344
 H         8.163905        4.883988        7.853232
 H         9.505413        4.880816        8.623636
 H         9.019391        3.509610        3.319901
 H         8.118561        4.771194        3.349955
 H         9.906336        5.115650        1.929983
 H        10.371789        6.375463        1.156455
 H        11.295892        1.185392        1.054206
 H         9.949405        1.166759        0.295082
 H        13.762695        1.177098        2.535301
 H        13.765793        1.203265        4.083354
 H        15.199394        1.163234        7.794602
 H        14.302902       14.505467        7.782351
 H        13.789480        5.097234        7.063211
 H        13.773689        5.104430        8.610031
 H         9.504292        1.522588        8.552494
 H         9.077103        2.789593        7.787653
 H         0.419376        1.493181       12.286671
 H         1.306163        2.758847       12.312484
 H         5.645953        4.827735        9.291674
 H         5.209166        3.557760       10.055793
 H         5.994505        5.093209       11.559381
 H         5.987479        5.080462       13.108606
 H         5.209546        3.529798       14.594048
 H         5.665225        4.787473       15.369246
 H         2.183300        1.200565       13.748155
 H         3.525371        1.181327       14.517720
 H         2.639929        6.369672       14.576915
 H         3.521728        5.101140       14.586858
 H         5.696970        1.441066       10.829222
 H         5.678938        1.455654        9.281316
 H         5.686675        1.435365       13.766817
 H         5.674623        1.410307       15.312345
 H         1.338883        3.513221       16.789671
 H         1.776912        4.788421       16.033667
 H         1.800304        4.870079       11.559960
 H         1.787470        4.846406       13.107348
 H         3.524101        5.142833       10.085523
 H         2.647616        6.417278       10.084525
 H         2.194922        1.221383       10.854323
 H         3.537869        1.215795       10.085070
 H         6.537808       14.498850       12.312536
 H         7.430747        1.165518       12.310294
 H         6.037793        1.152071       17.567848
 H         6.493007       14.476001       16.828442
 H         6.080872        5.084027       17.605934
 H         7.423147        5.066639       16.838800
 H         1.762161        1.416854       15.991173
 H         0.417250        1.411716       16.754728
 H         9.517644        8.714850       13.130622
 H         8.179434        8.702062       12.351653
 H        13.033639       10.774928       10.055003
 H        12.151862       12.036352       10.096912
 H        13.833396       12.391315       13.078954
 H        13.861855       12.354287       11.534086
 H        13.440462       12.099696       15.346168
 H        13.002351       10.837965       14.573404
 H        10.419123        7.199770       14.587228
 H        11.318041        8.456423       14.563645
 H        11.291054       12.375450       14.562838
 H         9.927018       12.365107       13.832288
 H        13.505068        8.706903       10.857500
 H        13.481659        8.705873        9.306623
 H        13.467215        8.727583       15.328601
 H        13.472405        8.731935       13.784989
 H         9.578493       12.132442       17.614477
 H         9.572103       12.140908       16.069746
 H         8.121606       12.073071       12.379131
 H         9.014634       10.806525       12.377767
 H         8.999340       10.807491        7.659312
 H         9.978198       12.436382       11.077905
 H        11.316297        8.477386       10.120499
 H         9.967116        8.492429       10.880299
 H        14.332368        7.185957       12.330420
 H        15.236744        8.443691       12.328117
 H        15.215763        8.446189       16.797430
 H        14.312101        7.193303       16.802563
 H        13.835804       12.385271       17.604923
 H        15.174281       12.369805       16.830141
 H         9.116739       10.026896       16.805222
 H         9.572623        8.775143       16.019365
 H         1.822642        8.780548       11.509719
 H         1.375195       10.028961       12.300232
 H         5.207592       10.858848       10.064130
 H         5.621251       12.133718        9.294401
 H         5.991602       12.401349       13.114990
 H         6.000047       12.389970       11.564772
 H         5.637218       12.141870       15.387630
 H         4.288098       12.147987       14.626952
 H         2.215108        8.474646       13.762223
 H         3.546738        8.481725       14.545406
 H         2.596943       13.683469       14.554316
 H         2.171005       12.416969       13.782499
 H         5.699224        8.746113        9.293013
 H         5.688084        8.740341       10.842082
 H         5.683788        8.772547       15.355182
 H         5.220605       10.039825       14.599663
 H         1.349271       10.817773       16.789804
 H         1.773611       12.094398       16.027493
 H         1.786497       12.160511       11.527128
 H         0.453155       12.141453       12.305492
 H         2.648099       13.711413       10.070282
 H         3.521743       12.434469       10.074695
 H         3.550149        8.516233       10.028145
 H         2.209441        8.517479        9.251493
 H         6.040616        8.468456       13.110840
 H         6.458998        7.190136       12.349404
 H         6.545888        7.187710       16.798903
 H         7.446018        8.445418       16.798109
 H         6.076639       12.364915       17.633265
 H         7.416719       12.372066       16.859171
 H         1.832530        8.711834       17.576538
 H         1.821853        8.711343       16.029278
