383
 generated by VMD
 O         9.150881        1.799710       12.294432
 O        12.996087        4.497004       10.050103
 O        14.267518        5.404104       12.299598
 O        12.983314        4.514910       14.547997
 O        10.380597        0.874982       14.551694
 O        10.402186        5.456184       14.533823
 O        12.976542        1.756635       10.039931
 O        12.950951        1.774010       14.541675
 O         9.099539        4.567823       16.764914
 O         9.130837        4.538020       12.284346
 O        10.424371        5.426308       10.052148
 O        10.411612        0.858887       10.068093
 O        14.210123        0.849643       12.307448
 O        14.177010        0.798234       16.806978
 O        14.272137        5.428188       16.781124
 O         9.084974        1.826092       16.766331
 O         9.080868        9.082286        3.327072
 O        12.950718       11.810828        1.086232
 O        14.245854       12.692022        3.332193
 O        12.944781       11.771028        5.561557
 O        10.325898        8.165588        5.577065
 O        10.362765       12.708126        5.606568
 O        12.945654        9.085542        1.121143
 O        12.924527        9.039451        5.602603
 O         9.076808       11.782101        7.858088
 O         9.117905       11.809194        3.336116
 O        10.374696       12.744863        1.080722
 O        10.374858        8.161733        1.092049
 O        14.234588        8.186100        3.367602
 O        14.252434        8.150170        7.842526
 O        14.249678       12.697536        7.794075
 O         9.055208        9.038029        7.841414
 O         1.310566        9.051860        3.365826
 O         5.248219       11.783038        1.072075
 O         6.512380       12.676082        3.345391
 O         5.231995       11.772229        5.593707
 O         2.610675        8.192134        5.623011
 O         2.639944       12.672806        5.584953
 O         5.220275        9.049281        1.105722
 O         5.219290        9.036900        5.621734
 O         1.315284       11.806269        7.833875
 O         1.322238       11.798692        3.338117
 O         2.641699       12.609141        1.062025
 O         2.620736        8.165722        1.122951
 O         6.501610        8.162930        3.360471
 O         6.475867        8.121163        7.872637
 O         6.504231       12.710664        7.836321
 O         1.291778        9.075775        7.857594
 O         1.040984        2.048466        3.660288
 O         5.221138        4.479036        1.074975
 O         6.496317        5.416168        3.327814
 O         5.231649        4.505560        5.591440
 O         2.639674        0.845035        5.672981
 O         2.651188        5.465208        5.605541
 O         5.241812        1.732678        1.123085
 O         5.244706        1.744924        5.619827
 O         1.318111        4.506573        7.820098
 O         1.305186        4.694532        3.353110
 O         2.635152        5.441352        1.086575
 O         2.678972        0.679029        1.212252
 O         6.487767        0.810949        3.369946
 O         6.507205        0.846403        7.866123
 O         6.502512        5.390008        7.854929
 O         1.320481        1.750090        7.854596
 O         9.037203        1.753752        3.358859
 O        12.956337        4.493224        1.052243
 O        14.188559        5.456481        3.304620
 O        12.915101        4.530350        5.569893
 O        10.304371        0.845473        5.625432
 O        10.328388        5.429760        5.573025
 O        12.844570        1.759352        1.066474
 O        12.876796        1.776909        5.610240
 O         9.100442        4.521178        7.839675
 O         9.077577        4.494445        3.315742
 O        10.383150        5.427677        1.091227
 O        10.273967        0.872578        1.087026
 O        14.092779        0.805122        3.324310
 O        14.250657        0.839556        7.811368
 O        14.252786        5.414100        7.803154
 O         9.069409        1.786026        7.876811
 O         1.251199        1.800126       12.179408
 O         5.205783        4.460921       10.071203
 O         6.534449        5.418414       12.274111
 O         5.241426        4.532829       14.538985
 O         3.174761        0.585808       13.753961
 O         2.644634        5.413883       14.522317
 O         5.197584        1.726506       10.102563
 O         5.343275        1.836022       14.510778
 O         1.325009        4.584529       16.813272
 O         1.315845        4.539974       12.309774
 O         2.629773        5.422525       10.055078
 O         2.606864        0.833232       10.046312
 O         6.577523        0.863532       12.303806
 O         6.523581        0.852996       16.807127
 O         6.499940        5.418869       16.791306
 O         1.174252        1.961593       17.075951
 O         9.097667        9.072188       12.319473
 O        12.966958       11.814387       10.046489
 O        14.281730       12.707025       12.277125
 O        12.980454       11.822591       14.516571
 O        10.405745        8.196004       14.558956
 O        10.396479       12.734786       14.508688
 O        12.963507        9.072687       10.091597
 O        12.990305        9.092047       14.570596
 O         9.130132       11.813559       16.763987
 O         9.064343       11.815216       12.291787
 O        10.378764       12.724313       10.070384
 O        10.375452        8.164711       10.075011
 O        14.249882        8.135800       12.325513
 O        14.239533        8.164440       16.826666
 O        14.260556       12.682836       16.792942
 O         9.100432        9.076782       16.797022
 O         1.315734        9.008745       12.320779
 O         5.224465       11.799354       10.091188
 O         6.493299       12.737586       12.322393
 O         5.235116       11.778834       14.570375
 O         2.625924        8.168192       14.572869
 O         2.615029       12.567586       14.488469
 O         5.202014        9.068200       10.115483
 O         5.234896        9.045843       14.580276
 O         1.319485       11.765173       16.789537
 O         1.314830       11.749827       12.270576
 O         2.618015       12.689119       10.067403
 O         2.622235        8.162920       10.069555
 O         6.521823        8.151699       12.340516
 O         6.530445        8.143661       16.819651
 O         6.539495       12.722443       16.797626
 O         1.309831        9.029598       16.819710
 H         9.608825        1.492296       11.504436
 H         9.155704        2.762216       12.267053
 H        13.465548        4.819805       10.827124
 H        13.461699        4.835734        9.277320
 H        15.180096        5.093015       12.328224
 H        13.834133        5.075476       13.094777
 H        12.082232        4.853177       14.567930
 H        13.423597        4.845510       15.339304
 H         9.959803        1.211496       13.752708
 H        11.289450        1.197555       14.535553
 H         9.936469        5.160367       15.324046
 H        10.396023        6.418948       14.558568
 H        13.438328        1.454714        9.249741
 H        12.999761        2.719564       10.026641
 H        13.408359        1.467108       13.750928
 H        12.983306        2.736018       14.528869
 H         9.529175        4.881456       17.567760
 H         8.187816        4.878919       16.793884
 H         9.588165        4.873271       13.062968
 H         9.606748        4.869129       11.514866
 H         9.978285        5.095902        9.264337
 H        11.327012        5.089947       10.026358
 H        10.417972       14.497675       10.068522
 H        11.331422        1.147439       10.051293
 H        13.767054        1.135848       11.502075
 H        14.233863       14.489638       12.286296
 H        13.679455        1.132804       17.558943
 H        13.754548        1.150816       16.018164
 H        14.273359        6.390710       16.802145
 H        15.196967        5.150733       16.782980
 H         9.105410        2.788257       16.735916
 H         9.546812        1.509951       15.981756
 H         9.105101       10.045530        3.302571
 H         9.535488        8.772562        2.536167
 H        13.396670       12.126405        0.291564
 H        12.054231       12.162607        1.060805
 H        13.777991       12.365809        2.555154
 H        13.780618       12.346639        4.102527
 H        12.909855       10.808027        5.577811
 H        12.034260       12.084197        5.580949
 H         9.909907        8.507545        4.777730
 H        11.237475        8.477141        5.570360
 H         9.907277       12.395203        6.395013
 H        10.337066       13.670916        5.638021
 H        12.951884       10.049493        1.129552
 H        13.407356        8.798058        1.916069
 H        13.405184        8.720133        4.830358
 H        13.399323        8.719728        6.376899
 H         9.048223       10.819428        7.853454
 H         8.162661       12.086993        7.847220
 H         9.576584       12.154940        2.562996
 H         9.580952       12.138509        4.113956
 H         9.928107       12.431430        0.286986
 H        10.326319       13.707021        1.061663
 H        10.402322        7.198484        1.096127
 H        11.289392        8.465682        1.106649
 H        15.157363        8.462101        3.363229
 H        14.230101        7.223044        3.338355
 H        13.815123        8.479581        8.634492
 H        15.155315        8.486369        7.865801
 H        13.821648       12.354523        7.002326
 H        15.158674       12.378994        7.783128
 H         9.478757        8.722315        7.035774
 H         8.152998        8.700129        7.834445
 H         1.318358       10.014383        3.338558
 H         1.775275        8.752346        2.576568
 H         5.699009       12.115380        1.855664
 H         5.723008       12.129778        0.308173
 H         7.422629       12.362350        3.367229
 H         6.079036       12.333686        4.134908
 H         5.211164       10.808935        5.612360
 H         4.315145       12.066392        5.584252
 H         2.140876        8.503544        4.841466
 H         2.129913        8.521770        6.390064
 H         2.172676       12.388384        4.791820
 H         2.626805       13.633159        5.581672
 H         5.245191       10.012571        1.108421
 H         5.671892        8.761022        1.906296
 H         4.306672        8.728822        5.635575
 H         5.637716        8.700134        6.421522
 H         1.794478       12.115846        7.058656
 H         1.789486       12.137315        8.605468
 H         1.758004       12.090171        2.530552
 H         0.416640       12.124240        3.306087
 H         2.199345       12.296829        0.262734
 H         3.550736       12.289680        1.036883
 H         2.653371        7.202267        1.108157
 H         3.534644        8.469370        1.114454
 H         6.071226        8.481315        4.161180
 H         7.403610        8.500628        3.372769
 H         6.464728        7.157701        7.896891
 H         6.025635        8.428880        8.666400
 H         6.498320       13.673970        7.819511
 H         6.047643       12.412148        7.042547
 H         1.310236       10.039393        7.874358
 H         1.768406        8.776612        8.639738
 H         1.126891        3.010193        3.537280
 H         2.272388        0.858312        2.044311
 H         5.233578        3.516946        1.111095
 H         5.666485        4.791039        1.869628
 H         6.491179        6.379036        3.353891
 H         6.049084        5.116860        4.126481
 H         4.318215        4.810382        5.596787
 H         5.207548        3.543220        5.592350
 H         2.170935        1.230732        4.943530
 H         2.175753        1.149803        6.465627
 H         2.641230        6.428144        5.651664
 H         2.178345        5.145139        6.381094
 H         4.351835        1.372298        1.137517
 H         5.674993        1.399813        1.917340
 H         5.686803        1.432877        6.418261
 H         4.343052        1.415563        5.663094
 H         0.400032        4.796635        7.812241
 H         1.303672        3.543993        7.837698
 H         1.792029        4.961112        2.563988
 H         1.796619        5.015409        4.118365
 H         3.528598        5.084428        1.061160
 H         2.187890        5.132773        0.287187
 H         1.672565        1.491051       -0.207063
 H         2.673054       14.315844        1.126199
 H         6.040730        1.109398        4.169767
 H         6.483088       14.449287        3.387282
 H         7.406681        1.190870        7.896272
 H         6.059931        1.164182        8.658735
 H         6.031272        5.036310        8.617965
 H         6.041557        5.068598        7.072459
 H         0.417934        1.415334        7.861131
 H         1.752404        1.411936        8.650047
 H         8.137314        1.408303        3.382999
 H         9.475043        1.428083        4.152420
 H        13.423719        4.787007        0.262258
 H        12.937911        3.530137        1.029599
 H        15.110093        5.183506        3.294185
 H        13.781123        5.105038        2.504720
 H        12.009673        4.860031        5.555852
 H        13.340478        4.862519        4.772994
 H        11.204623        1.187145        5.644892
 H         9.871737        1.181330        6.418210
 H         9.882694        5.120056        4.777068
 H        10.312716        6.392912        5.546953
 H        11.932346        1.448618        1.087744
 H        13.267900        1.409419        1.854849
 H        13.281440        1.455363        4.800093
 H        12.899862        2.739366        5.570810
 H         9.513515        4.847820        7.032454
 H         8.191066        4.839839        7.832787
 H         8.163763        4.799712        3.314364
 H         9.045523        3.531686        3.331990
 H        11.285040        5.088338        1.094404
 H         9.950739        5.082565        1.879746
 H         9.825038        1.228566        0.312340
 H         9.810666        1.196861        1.866996
 H        14.169849       14.444839        3.335564
 H        14.974627        1.155323        3.362201
 H        13.779649        1.148293        7.030964
 H        14.235790       14.478723        7.780992
 H        13.780438        5.126175        7.014844
 H        14.245358        6.377647        7.794100
 H         9.093369        2.749101        7.883677
 H         9.549212        1.484696        8.656219
 H         0.341087        1.500638       12.249655
 H         1.246610        2.758862       12.249960
 H         5.170834        3.497680       10.090889
 H         4.295193        4.774492       10.072616
 H         6.088610        5.070186       11.494848
 H         7.439572        5.090691       12.251638
 H         5.261585        3.566274       14.523331
 H         5.699613        4.826753       13.746111
 H         2.877257       14.339587       14.075842
 H         2.441283        1.008087       13.311281
 H         2.666096        6.375182       14.548118
 H         3.560307        5.115075       14.530384
 H         5.640987        1.404768       10.895636
 H         4.295747        1.387868       10.123593
 H         4.494511        1.395554       14.338470
 H         5.697907        1.477084       15.327640
 H         1.292410        3.615928       16.869886
 H         1.789324        4.812559       16.003828
 H         1.804324        4.848061       13.081976
 H         1.787521        4.861647       11.535299
 H         2.164111        5.124352        9.267040
 H         2.625075        6.385302       10.032567
 H         2.125583        1.155197       10.818703
 H         2.600379       14.473625       10.091631
 H         7.481311        1.193318       12.292471
 H         6.172250        1.219868       13.104544
 H         6.091798        1.173764       17.605019
 H         7.416065        1.213558       16.809793
 H         6.032420        5.066116       17.556223
 H         6.038805        5.097834       16.007093
 H         0.334190        1.515440       16.975609
 H         9.579526        8.759886       13.092880
 H         9.563509        8.740756       11.544086
 H        13.393064       12.133771        9.243508
 H        12.064131       12.149670       10.037833
 H        15.184011       12.368544       12.260941
 H        13.845963       12.380163       11.483130
 H        13.422846       12.149465       13.725574
 H        12.077139       12.155540       14.488753
 H         9.964101        8.515469       15.353471
 H        11.310407        8.526306       14.587687
 H        10.375597       13.698099       14.505850
 H         9.922890       12.441305       13.723321
 H        12.046417        8.778866       10.080056
 H        12.944770       10.035670       10.079110
 H        13.436873        8.769970       13.780238
 H        13.006048       10.054716       14.526772
 H         9.583446       12.104391       15.965866
 H         9.130009       10.850426       16.754807
 H         8.147469       12.112842       12.305740
 H         9.048991       10.852571       12.302552
 H         9.907763       12.385287        9.300940
 H         9.907080       12.397096       10.844220
 H        10.385928        7.201829       10.047632
 H         9.910485        8.455644        9.282675
 H        14.237348        7.172553       12.296702
 H        13.795730        8.445434       11.534739
 H        13.769906        8.498267       17.598232
 H        13.785512        8.506525       16.049358
 H        13.811829       12.394119       15.991966
 H        14.238030       13.647853       16.781937
 H         8.196882        8.742005       16.819092
 H         9.535470        8.744988       17.590338
 H         0.410591        8.681347       12.344886
 H         1.750888        8.700550       13.123059
 H         5.686054       12.129211        9.313381
 H         5.682891       12.154325       10.861135
 H         6.496984       13.701859       12.345293
 H         6.035583       12.438460       13.114998
 H         5.691572       12.094469       15.356861
 H         5.266901       10.816788       14.593916
 H         2.188610        8.482361       15.371219
 H         3.528525        8.501503       14.595546
 H         2.176805       12.316200       15.305510
 H         3.526556       12.266575       14.551880
 H         5.668467        8.773108       10.904518
 H         5.225735       10.031930       10.121991
 H         5.702382        8.713707       13.806192
 H         5.701540        8.709964       15.352902
 H         1.276828       10.803083       16.795517
 H         0.410665       12.084041       16.793360
 H         1.312515       10.787501       12.291686
 H         1.778565       12.032314       13.070090
 H         2.178751       12.345512       10.854078
 H         3.525835       12.370753       10.096614
 H         3.524665        8.498201       10.105949
 H         2.180112        8.464512       10.870644
 H         7.437959        8.449391       12.330825
 H         6.543485        7.188670       12.309708
 H         6.503937        7.179969       16.831774
 H         6.064372        8.442985       17.608061
 H         7.456841       12.430903       16.782585
 H         6.553266       13.686488       16.795862
 H         0.403717        8.704932       16.845205
 H         1.745487        8.713435       17.618563
