383
 generated by VMD
 O         9.104029        1.748204       12.299473
 O        12.943737        4.545371       10.036685
 O        14.272793        5.431492       12.282887
 O        12.974873        4.572001       14.553208
 O        10.373418        0.873398       14.566828
 O        10.376640        5.421165       14.538851
 O        12.906155        1.812456        9.991925
 O        12.929823        1.842600       14.600857
 O         9.112858        4.549245       16.811169
 O         9.076263        4.484136       12.297198
 O        10.355371        5.428267       10.076945
 O        10.359379        0.848126       10.058958
 O        14.104697        1.006831       12.276536
 O        14.225639        0.861801       16.831991
 O        14.215918        5.463573       16.820642
 O         9.126442        1.798064       16.834389
 O         9.089942        9.066756        3.349698
 O        12.985652       11.843764        1.089064
 O        14.277275       12.708117        3.334499
 O        12.954501       11.796721        5.541954
 O        10.381559        8.137282        5.585364
 O        10.381348       12.728187        5.550573
 O        12.982464        9.111083        1.131376
 O        12.966700        9.057120        5.578019
 O         9.044909       11.782931        7.747297
 O         9.093855       11.806186        3.321167
 O        10.405169       12.761765        1.104425
 O        10.399677        8.170541        1.113505
 O        14.270820        8.153890        3.346127
 O        14.272346        8.181030        7.835651
 O        14.276658       12.726895        7.756103
 O         9.104313        9.055429        7.824864
 O         1.327014        9.032256        3.362737
 O         5.203291       11.797242        1.110482
 O         6.514819       12.719524        3.330138
 O         5.236475       11.810099        5.570928
 O         2.649120        8.153440        5.594027
 O         2.647388       12.682714        5.541612
 O         5.182802        9.061246        1.121285
 O         5.217506        9.080313        5.592903
 O         1.311761       11.770439        7.755196
 O         1.314222       11.765903        3.342492
 O         2.605519       12.708445        1.119588
 O         2.601447        8.147050        1.119315
 O         6.493713        8.150171        3.357066
 O         6.524892        8.145398        7.797556
 O         6.491843       12.737886        7.803757
 O         1.351109        9.026351        7.833137
 O         1.303916        1.774371        3.391502
 O         5.204348        4.513911        1.071176
 O         6.489209        5.408039        3.324136
 O         5.209004        4.474313        5.561424
 O         2.609987        0.823482        5.595327
 O         2.632607        5.420636        5.576092
 O         5.215771        1.761018        1.096082
 O         5.191160        1.737856        5.573416
 O         1.291810        4.501186        7.791750
 O         1.326992        4.515689        3.353247
 O         2.618165        5.418649        1.106599
 O         2.611072        0.847921        1.172757
 O         6.503494        0.860275        3.338993
 O         6.486063        0.866225        7.818600
 O         6.497666        5.411167        7.789022
 O         1.295421        1.771548        7.800206
 O         9.080070        1.773249        3.370611
 O        12.964039        4.512996        1.138955
 O        14.280252        5.415909        3.368598
 O        12.969275        4.504880        5.585004
 O        10.332830        0.857169        5.611727
 O        10.379643        5.402758        5.578838
 O        12.980759        1.777176        1.142204
 O        12.919950        1.765463        5.583941
 O         9.081574        4.513602        7.825035
 O         9.086305        4.504269        3.338632
 O        10.402596        5.438857        1.116421
 O        10.392401        0.900836        1.136259
 O        14.260630        0.844126        3.379781
 O        14.255051        0.850626        7.803898
 O        14.261279        5.452193        7.814247
 O         9.059044        1.773722        7.851854
 O         1.283079        1.655762       12.231899
 O         5.232030        4.528252       10.051055
 O         6.505253        5.451887       12.294304
 O         5.247784        4.568572       14.557929
 O         2.936833        0.836399       14.910273
 O         2.615772        5.369164       14.580466
 O         5.208157        1.792788       10.042447
 O         5.371430        1.846572       14.538096
 O         1.263108        4.545171       16.828495
 O         1.298361        4.468020       12.316424
 O         2.618135        5.329942       10.053364
 O         2.607993        0.890325       10.016663
 O         6.529419        0.869909       12.268344
 O         6.569048        0.854396       16.815210
 O         6.529014        5.452409       16.806986
 O         1.279463        1.803540       16.944281
 O         9.101772        9.107579       12.332447
 O        12.842129       11.773398        9.914371
 O        13.610668       12.868188       12.151249
 O        12.911757       11.789052       14.634601
 O        10.360102        8.157031       14.581567
 O        10.325585       12.730978       14.567272
 O        12.951070        9.084722       10.031022
 O        12.956256        9.036439       14.548900
 O         9.124506       11.796552       16.823013
 O         9.098247       11.845071       12.279689
 O        10.315666       12.720705        9.987443
 O        10.359201        8.170745       10.085342
 O        14.238391        8.158078       12.271116
 O        14.263698        8.182666       16.830053
 O        14.258123       12.723631       16.786726
 O         9.083975        9.064010       16.831900
 O         1.368199        8.879304       12.286146
 O         5.228747       11.798401       10.037766
 O         6.496116       12.727972       12.281836
 O         5.297827       11.754697       14.567863
 O         2.633531        8.114887       14.558439
 O         2.732056       12.639373       14.588177
 O         5.212842        9.052611       10.037906
 O         5.208242        9.027226       14.562696
 O         1.324214       11.785549       16.797316
 O         1.707404       11.469920       12.249250
 O         2.678310       12.723756        9.945303
 O         2.648880        8.076335       10.044093
 O         6.516439        8.184325       12.294238
 O         6.497095        8.188977       16.822226
 O         6.546051       12.689470       16.830250
 O         1.335131        9.047315       16.801777
 H         9.579845        1.413772       11.530190
 H         9.567382        1.429153       13.081619
 H        12.916340        3.582222       10.012895
 H        12.027884        4.843511       10.051734
 H        14.256129        6.396044       12.256177
 H        13.801047        5.128774       11.500146
 H        13.454123        4.884392       13.778500
 H        13.429795        4.915451       15.330038
 H        11.272622        1.218356       14.588113
 H         9.940481        1.202267       15.361414
 H         9.939433        5.078237       13.752866
 H        11.289401        5.113694       14.510454
 H        13.349839        1.515126       10.795336
 H        13.398915        1.454466        9.246128
 H        12.952567        2.805499       14.626550
 H        13.393940        1.525801       15.382053
 H         9.589058        4.880719       17.579910
 H         9.581185        4.861279       16.029526
 H         9.052834        3.520922       12.297220
 H         8.163783        4.792015       12.301325
 H         9.888184        5.103986        9.300108
 H         9.892489        5.078864       10.846675
 H        11.274942        1.148673       10.028428
 H        10.376449       14.486182       10.032256
 H        13.723214        1.328078       13.100141
 H        15.034306        1.234530       12.283130
 H        14.250466       14.500114       16.801884
 H        15.139752        1.157240       16.852901
 H        13.767097        5.154564       17.614157
 H        14.216759        6.427593       16.854897
 H         9.131025        2.760872       16.848862
 H         9.586614        1.505667       17.629158
 H         9.560928        8.739710        2.575380
 H         9.558938        8.734134        4.122331
 H        12.085998       12.187709        1.078804
 H        13.415918       12.159660        0.285679
 H        15.178400       12.367735        3.319281
 H        13.847299       12.401639        2.528048
 H        12.965293       10.833511        5.534302
 H        13.420567       12.086850        4.749971
 H         9.933517        8.440262        6.382726
 H        10.365639        7.174501        5.604984
 H         9.951977       12.398396        4.753534
 H        11.285825       12.395730        5.535980
 H        12.951271       10.074250        1.119308
 H        12.070277        8.802444        1.118973
 H        13.406403        8.723046        4.788782
 H        12.065493        8.718318        5.560891
 H         9.492169       12.120041        6.964095
 H         8.146332       12.130149        7.734910
 H         9.072206       10.843189        3.329465
 H         8.178161       12.105886        3.319024
 H         9.942318       12.443957        1.886800
 H        10.382719       13.724172        1.138561
 H         9.931294        8.462221        0.323447
 H        10.396912        7.207155        1.097237
 H        13.840524        8.504371        2.558320
 H        15.178503        8.476977        3.336503
 H        13.805534        8.504278        7.058517
 H        13.794785        8.516576        8.604588
 H        13.837420       12.387312        6.969861
 H        15.173683       12.376792        7.745119
 H         9.551353        8.780292        8.632942
 H         9.095836       10.018991        7.818744
 H         1.791596        8.705583        2.583808
 H         1.805059        8.706622        4.133001
 H         5.206629       10.833954        1.095911
 H         5.672009       12.089045        0.321350
 H         6.046606       12.414487        2.544769
 H         6.496075       13.682295        3.308120
 H         5.691586       12.156313        6.346908
 H         5.707600       12.138035        4.797149
 H         2.206714        8.467796        6.390833
 H         3.547349        8.501751        5.617067
 H         3.568825       12.401360        5.548727
 H         2.650497       13.645467        5.561741
 H         5.623161        8.731169        1.911313
 H         4.279246        8.727380        1.141536
 H         5.237739       10.043756        5.608087
 H         5.686512        8.776752        6.378377
 H         1.786321       12.049994        6.966063
 H         1.337741       10.808285        7.774698
 H         1.786448       12.073074        4.124485
 H         1.326838       10.802987        3.371655
 H         3.511096       12.381465        1.135306
 H         2.169798       12.354862        1.902865
 H         2.594405        7.183646        1.090477
 H         2.157918        8.451320        0.319595
 H         7.399284        8.477261        3.368124
 H         6.065993        8.488658        4.151309
 H         7.442577        8.438590        7.812723
 H         6.538079        7.182310        7.788559
 H         6.048544       12.419106        8.598757
 H         6.477730       13.700616        7.841604
 H         0.439314        8.717469        7.857786
 H         1.782671        8.688115        8.626278
 H         0.387704        1.476694        3.387967
 H         1.288102        2.737464        3.374896
 H         5.220647        3.551488        1.053733
 H         5.674128        4.815776        0.285845
 H         6.035620        5.120705        2.524336
 H         6.477534        6.371183        3.320854
 H         5.213726        3.511121        5.542337
 H         5.663402        4.773737        4.766509
 H         2.142597        1.165378        4.825086
 H         2.137042        1.156300        6.365822
 H         2.671246        6.383461        5.586686
 H         3.542428        5.104734        5.577950
 H         5.654653        1.421941        0.308812
 H         4.314199        1.423902        1.089889
 H         5.633796        1.417552        6.367292
 H         4.287927        1.403873        5.601929
 H         0.395710        4.855679        7.778212
 H         1.739728        4.835489        7.007762
 H         1.804437        4.846941        4.122069
 H         1.797371        4.835055        2.575616
 H         2.162326        5.101928        0.319475
 H         3.521992        5.087915        1.060198
 H         2.592971       14.486246        1.184816
 H         2.163455        1.147185        1.971804
 H         6.020417        1.176506        4.110200
 H         6.040669        1.194129        2.562767
 H         7.390873        1.197755        7.843696
 H         6.049127        1.207333        8.607216
 H         6.033932        5.093494        8.571626
 H         6.027955        5.065502        7.022373
 H         1.264073        2.734695        7.788855
 H         0.382078        1.462846        7.801846
 H         9.500903        1.440308        4.171241
 H         8.176670        1.438067        3.372431
 H        12.985406        3.549638        1.149683
 H        13.436410        4.808581        1.924574
 H        14.295615        6.379243        3.353133
 H        15.198721        5.124251        3.358570
 H        13.428746        4.845119        6.360476
 H        13.448152        4.833755        4.815975
 H        10.341153       14.495765        5.618701
 H         9.881691        1.145429        6.412660
 H         9.944336        5.074194        4.784609
 H        11.286988        5.079943        5.557703
 H        13.431336        1.435893        0.361498
 H        13.450379        1.431474        1.908904
 H        12.916162        2.728610        5.584478
 H        12.000626        1.479432        5.595382
 H         8.175448        4.838691        7.788657
 H         9.524637        4.831975        7.031449
 H         9.056628        3.541071        3.348204
 H         8.172431        4.808160        3.332151
 H         9.950294        5.099850        1.896100
 H        11.303873        5.098198        1.148787
 H        11.300505        1.221741        1.166827
 H         9.952025        1.224735        1.929485
 H        14.261235       14.482800        3.391190
 H        13.781017        1.135614        4.162462
 H        13.785949        1.148773        7.017968
 H        14.256607       14.488470        7.775894
 H        14.252706        6.415954        7.841100
 H        13.797134        5.151212        8.603429
 H         9.081754        2.736587        7.860847
 H         9.519358        1.473414        8.644362
 H         1.753897        1.374534       11.432096
 H         1.676503        1.179974       12.945469
 H         5.659354        4.872854       10.843143
 H         4.315908        4.825501       10.076659
 H         6.515174        6.415781       12.304480
 H         6.051299        5.174350       13.097040
 H         4.329123        4.855046       14.594335
 H         5.679260        4.900161       15.353669
 H         3.826660        1.213212       14.790739
 H         2.772762       13.586400       14.581931
 H         2.123701        5.062634       15.349378
 H         2.145353        5.048698       13.804909
 H         5.232238        2.755847       10.072110
 H         5.668858        1.481256       10.828968
 H         5.357014        2.810633       14.512260
 H         5.785351        1.534701       13.724507
 H         0.351294        4.857671       16.828812
 H         1.226462        3.585775       16.878555
 H         1.260715        3.511052       12.320070
 H         0.387714        4.786739       12.304461
 H         2.140494        5.012282       10.825865
 H         2.137607        5.021205        9.278270
 H         2.168052        1.220984        9.224639
 H         3.511137        1.224337       10.002102
 H         6.526608       14.508349       12.278342
 H         7.454217        1.143781       12.263569
 H         7.475071        1.184443       16.837896
 H         6.184846        1.207686       16.008556
 H         6.545677        6.415658       16.821424
 H         7.446315        5.157311       16.807383
 H         1.728662        1.475241       17.733767
 H         1.810456        1.512857       16.211943
 H         9.547115        8.807393       13.131654
 H         9.123577       10.070849       12.339819
 H        13.185983       12.169440       10.733956
 H        13.370688       12.116707        9.189692
 H        13.819405       13.794299       12.247078
 H        13.466878       12.501308       13.021154
 H        12.911608       10.828267       14.593178
 H        11.993207       12.072565       14.630127
 H        10.342494        7.194130       14.579538
 H         9.904994        8.445821       15.379501
 H        10.344985       13.693276       14.545418
 H         9.898096       12.445633       13.752947
 H        12.914644       10.050754       10.001174
 H        12.040032        8.776476       10.047812
 H        13.398540        8.726644       15.344545
 H        12.054105        8.702863       14.584868
 H         9.564356       12.134205       16.033863
 H         9.598910       12.146576       17.584301
 H         9.524960       12.162377       11.475694
 H         8.189775       12.162467       12.255254
 H         9.863866       12.396173        9.202524
 H        11.217432       12.375703        9.937060
 H        10.342588        7.208259       10.105579
 H         9.916491        8.474941       10.884787
 H        13.780938        8.517924       11.503887
 H        13.780330        8.488860       13.049978
 H        15.173570        8.498908       16.835270
 H        13.838842        8.533851       17.619316
 H        13.806519       12.380148       16.004429
 H        15.159590       12.389126       16.758291
 H         9.086570       10.027674       16.828318
 H         8.160643        8.789105       16.831379
 H         0.429878        8.672526       12.280198
 H         1.448990        9.848391       12.267306
 H         5.197232       10.835942       10.038868
 H         4.314571       12.105385       10.000384
 H         6.021141       12.384273       11.516985
 H         6.062474       12.373779       13.064545
 H         5.282406       10.791066       14.586988
 H         5.753190       12.048249       15.363848
 H         2.167423        8.376292       13.752897
 H         2.629218        7.152794       14.566059
 H         3.646583       12.329936       14.591078
 H         2.023091       11.925911       13.024470
 H         5.648811        8.720305        9.246994
 H         4.315336        8.701241       10.030630
 H         4.300894        8.701210       14.531677
 H         5.645317        8.715502       13.763528
 H         1.784106       12.119967       17.574087
 H         1.817359       12.094658       16.031677
 H         2.012417       11.948836       11.480987
 H         2.626712       13.682261        9.949448
 H         2.180144       12.417909        9.181344
 H         2.643050        7.114376       10.050126
 H         2.184532        8.349663       10.847212
 H         7.415098        8.530552       12.288796
 H         6.082931        8.508445       11.497563
 H         6.011150        8.505128       17.591146
 H         6.023123        8.493084       16.040150
 H         7.464604       12.396507       16.839600
 H         6.567670       13.651357       16.817783
 H         1.345963       10.010421       16.778511
 H         1.786754        8.745001       16.006165
