384

O 9.06971761 1.75243023 12.30383121
O 12.97478608 4.50164864 10.06230470
O 14.28677103 5.41502805 12.29657079
O 12.98087051 4.50628393 14.53413522
O 10.36247299 0.84700782 14.55252956
O 10.39068460 5.40881440 14.53864666
O 12.96120411 1.75781060 10.06716989
O 12.94835242 1.76657855 14.54973745
O 9.09454124 4.51057446 16.78505598
O 9.08761387 4.49220014 12.29495649
O 10.38818585 5.41225255 10.06450487
O 10.37602602 0.85699638 10.07645868
O 14.25152009 0.85505048 12.31407480
O 14.25190695 0.85844194 16.79206732
O 14.25550642 5.41577273 16.78681145
O 9.06488666 1.76498054 16.78850691
O 9.08280674 9.06241583 3.33922759
O 12.97376998 11.81131502 1.09627241
O 14.26752432 12.71703065 3.34119253
O 12.97596831 11.81074789 5.58435458
O 10.38072788 8.15191606 5.58012193
O 10.38688791 12.72143192 5.57544463
O 12.96742749 9.07154168 1.09623036
O 12.96834267 9.06717806 5.58831676
O 9.09695429 11.80044747 7.81405456
O 9.09606085 11.80158630 3.33385707
O 10.38725594 12.71735284 1.08952537
O 10.37890477 8.15071172 1.09135110
O 14.24713683 8.15183113 3.33912808
O 14.26432840 8.15668804 7.83445139
O 14.27882687 12.71569610 7.82433060
O 9.08678365 9.06010628 7.82565750
O 1.30389091 9.05871771 3.34605865
O 5.20481934 11.80124212 1.09670431
O 6.50707773 12.71053931 3.33456818
O 5.20593882 11.81370253 5.57564112
O 2.61306310 8.15309260 5.58426717
O 2.62036915 12.71024667 5.57214208
O 5.18936734 9.06290737 1.09736174
O 5.19132334 9.07302179 5.57704342
O 1.32952509 11.80146138 7.81317758
O 1.32209658 11.80193324 3.33503285
O 2.61663999 12.71731383 1.10106611
O 2.60280651 8.14977476 1.10864778
O 6.48699857 8.15336828 3.34035955
O 6.49534393 8.15547711 7.80697152
O 6.50568259 12.71193439 7.81927160
O 1.32346868 9.06115630 7.83168978
O 1.30975978 1.76774092 3.34511172
O 5.20139364 4.50802386 1.08396963
O 6.50078179 5.40914130 3.33226240
O 5.20950767 4.49577434 5.57716409
O 2.60608010 0.84943085 5.58613872
O 2.62023415 5.40965756 5.56968007
O 5.18949943 1.76291256 1.09223337
O 5.19730822 1.75691595 5.57818552
O 1.33142537 4.50326383 7.82570478
O 1.32244318 4.50940520 3.33285675
O 2.61638119 5.41291398 1.08621720
O 2.59956260 0.85423014 1.09382904
O 6.49315158 0.85396310 3.33148836
O 6.49419000 0.84677096 7.82122619
O 6.50296683 5.41770158 7.81231150
O 1.31761454 1.76298937 7.82855209
O 9.08655518 1.76205738 3.33294028
O 12.96585074 4.50013090 1.09470602
O 14.26985100 5.40532969 3.33986489
O 12.97897633 4.50441412 5.57916544
O 10.36468014 0.86002866 5.57943162
O 10.38677280 5.41309597 5.57482343
O 12.96028819 1.76157457 1.08765414
O 12.96043105 1.76462900 5.58120330
O 9.09148048 4.50371582 7.81935804
O 9.09824316 4.50180751 3.32749189
O 10.38823153 5.41318911 1.08300411
O 10.37018147 0.85869534 1.08092800
O 14.25070912 0.85767448 3.33317980
O 14.25836409 0.85418264 7.82772114
O 14.28096536 5.41688608 7.82390327
O 9.07848893 1.76175145 7.83087389
O 1.31032430 1.76059655 12.32096450
O 5.21755258 4.50539530 10.06047774
O 6.49892387 5.41525126 12.30586801
O 5.21073704 4.50851219 14.55083587
O 2.60386430 0.85316476 14.56240632
O 2.61940180 5.41670875 14.55697829
O 5.20623680 1.76532039 10.05243249
O 5.19417504 1.76617951 14.54557212
O 1.31303330 4.50276197 16.78694882
O 1.33614306 4.49737922 12.31117641
O 2.62866082 5.40959647 10.07440590
O 2.61431333 0.85123559 10.07175096
O 6.48502015 0.85460594 12.30214349
O 6.47514196 0.84861601 16.78913311
O 6.50862252 5.41273225 16.79144177
O 1.30228477 1.76326021 16.79443954
O 9.09487073 9.06542157 12.31208548
O 12.97316945 11.81022222 10.06466220
O 14.26828822 12.71402094 12.30674636
O 12.97608034 11.79290463 14.54524548
O 10.38488441 8.14804055 14.55745955
O 10.38411135 12.70909462 14.54826884
O 12.97168597 9.07160226 10.06917425
O 12.96924168 9.05420474 14.54891381
O 9.09288848 11.80135556 16.79410120
O 9.08828167 11.80811822 12.30654364
O 10.38145922 12.71402073 10.06056055
O 10.38740784 8.16198651 10.07065334
O 14.27289353 8.16078243 12.30180874
O 14.26525268 8.15669278 16.80129243
O 14.26122878 12.71581707 16.78922044
O 9.07762561 9.05674306 16.79403107
O 1.32674992 9.06088513 12.31360766
O 5.20705527 11.80180519 10.07330430
O 6.49316661 12.71637487 12.31298843
O 5.20476472 11.79529212 14.55946968
O 2.62601993 8.15802395 14.55348812
O 2.62337430 12.71555342 14.55749937
O 5.20995496 9.06077778 10.05846387
O 5.20664109 9.06031791 14.55346436
O 1.32079406 11.81308853 16.79922271
O 1.33051020 11.80635661 12.31045062
O 2.60983936 12.70804537 10.06498158
O 2.62126049 8.14897289 10.06824287
O 6.50454428 8.15481327 12.30512452
O 6.49083469 8.15724184 16.80002252
O 6.50423453 12.70285274 16.79847669
O 1.32267110 9.06830019 16.80114314
H 9.54628869 1.42509623 11.53272274
H 9.53813052 1.42793762 13.07995612
H 12.95439613 3.53866976 10.06343338
H 12.05813080 4.79720827 10.06275285
H 14.27317329 6.37780443 12.27560302
H 13.82143418 5.11367251 11.50903800
H 13.45613120 4.83519408 13.76379894
H 13.44007324 4.84267750 15.31107958
H 11.26387600 1.18507571 14.57580779
H 9.92155873 1.17812862 15.34248255
H 9.95088732 5.07580460 13.74959033
H 11.29711051 5.08441458 14.51165533
H 13.43238081 1.43256776 10.84141245
H 13.42921005 1.42641162 9.29323614
H 12.96820526 2.72963071 14.56366224
H 13.41050102 1.46765609 15.34008160
H 9.56706739 4.83709126 17.55829210
H 9.56889544 4.82957269 16.01006946
H 9.05913264 3.52938173 12.29837588
H 8.17436871 4.79746312 12.30356762
H 9.91760643 5.09083086 9.28819535
H 9.91548433 5.07677407 10.83400011
H 11.29316655 1.15205903 10.06982391
H 10.39622862 14.49618169 10.06400921
H 13.81041282 1.19023574 13.10211011
H 15.15655189 1.18287763 12.34033634
H 14.27334256 14.49752351 16.78410447
H 15.16885061 1.15417787 16.78772809
H 13.80088993 5.11413521 17.58009941
H 14.24995391 6.37877632 16.81367350
H 9.08372119 2.72772143 16.80699173
H 9.52384527 1.46501671 17.58066340
H 9.54932269 8.73132291 2.56459953
H 9.55434689 8.73361642 4.11187345
H 12.07104044 12.14734894 1.08295075
H 13.40330083 12.13620302 0.29799663
H 15.17253904 12.38848683 3.32108127
H 13.83417977 12.39329646 2.54435101
H 12.98251531 10.84754993 5.56522609
H 13.43246429 12.10621863 4.78910756
H 9.92410032 8.45172951 6.37322151
H 10.36984517 7.18910147 5.59951254
H 9.95546650 12.38785801 4.78150866
H 11.29266207 12.39403192 5.55894367
H 12.93895276 10.03434847 1.09553236
H 12.05384666 8.76640190 1.08861874
H 13.40084820 8.73400846 4.79482183
H 12.06402783 8.73641459 5.57001190
H 9.52905120 12.12960179 7.01877724
H 8.19291854 12.13189803 7.79948390
H 9.07206534 10.83866199 3.33503629
H 8.18093105 12.10179434 3.33247314
H 9.93061527 12.41188844 1.88078255
H 10.36891748 13.67998551 1.11227898
H 9.91596233 8.44724956 0.30074648
H 10.37405128 7.18761788 1.07100127
H 13.81331701 8.48759633 2.54732053
H 15.15093282 8.48382784 3.32343297
H 13.79702503 8.48304582 7.05808120
H 13.79356167 8.49428244 8.60409809
H 13.84006684 12.38183605 7.03437620
H 15.18322413 12.38467322 7.79812832
H 9.54356746 8.76919360 8.62170063
H 9.09801205 10.02316915 7.83441806
H 1.77232517 8.72535343 2.57318292
H 1.77195557 8.72699478 4.11954829
H 5.20891893 10.83831819 1.07812187
H 5.66547626 12.09696693 0.30435574
H 6.04598761 12.40794720 2.54475756
H 6.49019843 13.67315930 3.31242464
H 5.67554496 12.14309404 6.34918867
H 5.67887785 12.13665886 4.80107540
H 2.17614145 8.47608921 6.37956282
H 3.51330403 8.49572286 5.60331447
H 3.53987072 12.42341562 5.57116673
H 2.63037477 13.67343788 5.57709051
H 5.62837248 8.73692130 1.88999796
H 4.28516812 8.73222154 1.12186999
H 5.20636092 10.03606775 5.59523891
H 5.65573357 8.77171056 6.36551884
H 1.79187730 12.09467841 7.02078637
H 1.34016741 10.83836318 7.80415423
H 1.78012172 12.10439538 4.12696027
H 1.32747693 10.83925673 3.36161249
H 3.52154442 12.38808015 1.11995859
H 2.18178643 12.37987176 1.89177548
H 2.59308613 7.18693868 1.07746820
H 2.15408986 8.45695192 0.31376582
H 7.39274785 8.47986737 3.35759512
H 6.05452200 8.48828428 4.13311992
H 7.41132336 8.45253621 7.81539976
H 6.51582775 7.19235502 7.80533785
H 6.04989247 12.40695189 8.61061107
H 6.49093620 13.67503919 7.84601095
H 0.41690167 8.73655407 7.85076478
H 1.75552088 8.72741558 8.62514130
H 0.39265070 1.47471958 3.34048004
H 1.29480255 2.73081859 3.33728612
H 5.20900081 3.54500725 1.06909581
H 5.66763258 4.80193805 0.29408548
H 6.04296823 5.11685892 2.53732838
H 6.48636358 6.37209882 3.32256374
H 5.21717449 3.53274764 5.55975852
H 5.66777783 4.79289327 4.78400920
H 2.13742623 1.18228202 4.81323194
H 2.13506562 1.17959244 6.35868259
H 2.64541124 6.37238439 5.58086411
H 3.53457845 5.10702319 5.57540678
H 5.62095890 1.42943327 0.29830269
H 4.28405270 1.43506381 1.07552053
H 5.63658123 1.42623687 6.36899174
H 4.29222596 1.42902617 5.60260386
H 0.42993848 4.84213374 7.80629119
H 1.76743200 4.82717711 7.03065608
H 1.79671381 4.83609047 4.10524723
H 1.79424034 4.83234840 2.55803599
H 2.17543801 5.07874667 0.29813341
H 3.52211343 5.08566372 1.05861496
H 2.59333996 14.49343333 1.12259659
H 2.14581542 1.15795766 1.88709261
H 6.02038517 1.17865723 4.10499166
H 6.02411694 1.18540465 2.55828505
H 7.39826278 1.17896682 7.84044898
H 6.06046248 1.18537179 8.61233987
H 6.03829136 5.08989937 8.58961578
H 6.03347203 5.08002631 7.04221104
H 1.29635027 2.72607373 7.82811312
H 0.40193873 1.46451549 7.82773779
H 9.51549897 1.43320069 4.13054847
H 8.18210386 1.43191122 3.34830077
H 12.97791477 3.53671117 1.10657084
H 13.43203199 4.79390798 1.88432273
H 14.28205741 6.36845858 3.33099122
H 15.18905661 5.11660208 3.33225721
H 13.44529050 4.83528737 6.35390545
H 13.45331179 4.83263361 4.80742228
H 10.36796863 14.49908637 5.59642187
H 9.91240614 1.15199509 6.37785207
H 9.95531331 5.08185027 4.78015965
H 11.29367664 5.08960001 5.55734446
H 13.43011895 1.43167164 0.31385110
H 13.42632742 1.42551509 1.86055161
H 12.95096305 2.72793580 5.58096252
H 12.04178257 1.47707026 5.58231631
H 8.18696390 4.83320210 7.79442876
H 9.52959729 4.82860273 7.02575792
H 9.06753098 3.53903483 3.33153139
H 8.18492224 4.80717808 3.32990372
H 9.94668246 5.08194509 1.87236456
H 11.29219854 5.08109353 1.11048073
H 11.27687525 1.18355260 1.09915393
H 9.94045014 1.18785866 1.87735747
H 14.24963297 14.49693252 3.35530242
H 13.79053326 1.15417408 4.12544954
H 13.79874577 1.15309245 7.03602423
H 14.25636785 14.49320899 7.80282986
H 14.26166083 6.37963116 7.85065964
H 13.82009608 5.10933011 8.61163736
H 9.09370908 2.72479269 7.83979634
H 9.54053493 1.46822346 8.62301720
H 1.78020997 1.43233719 11.54728897
H 1.77956261 1.42820534 13.09368779
H 5.65318530 4.84047099 10.85170993
H 4.31202936 4.83280835 10.08460565
H 6.49756515 6.37852257 12.32207326
H 6.04256400 5.12381568 13.10231028
H 4.30546445 4.83573226 14.57722390
H 5.64945696 4.83362716 15.34428926
H 3.51768094 1.15698045 14.55373909
H 2.63104691 14.49219339 14.56015335
H 2.14310045 5.08536068 15.32597372
H 2.15849663 5.08013335 13.78092084
H 5.21814459 2.72824687 10.07825398
H 5.65492102 1.46106613 10.84872582
H 5.20349507 2.72919832 14.52957866
H 5.64877241 1.46969657 13.74998923
H 0.39890795 4.80536606 16.79286372
H 1.28725843 3.53991232 16.79028659
H 1.30996377 3.53441154 12.31620278
H 0.42205681 4.80092520 12.30319813
H 2.16022986 5.06894353 10.84415149
H 2.16169543 5.08397460 9.29765836
H 2.17469640 1.18541412 9.28267067
H 3.51813274 1.18255151 10.04648478
H 6.49927009 14.49341652 12.30771137
H 7.40394033 1.14346432 12.30156083
H 7.37712753 1.18593066 16.77462524
H 6.04444343 1.17834538 15.99302049
H 6.52503157 6.37558662 16.79617466
H 7.42611104 5.11928511 16.78738542
H 1.76932181 1.43590387 17.57052411
H 1.77795395 1.43541878 16.02349600
H 9.54942886 8.76655360 13.10655806
H 9.10657517 10.02826513 12.32891701
H 13.43778707 12.13994916 10.84146154
H 13.44990118 12.13666882 9.29430845
H 14.24973885 13.67631809 12.33732002
H 13.81197831 12.40301007 13.09607658
H 12.95036822 10.82980696 14.54855793
H 12.06163410 12.09461562 14.54759745
H 10.37266864 7.18487930 14.56394561
H 9.91883559 8.43990993 15.34792128
H 10.36830049 13.67216221 14.53371923
H 9.92319320 12.41477749 13.75544502
H 12.95212378 10.03464453 10.06754669
H 12.05611300 8.77219373 10.07132189
H 13.40781442 8.73139074 15.34315333
H 12.06674185 8.71829781 14.57432515
H 9.56334741 12.12611930 16.01910199
H 9.56377235 12.13019051 17.56717138
H 9.52111644 12.13476124 11.51064132
H 8.18195303 12.13293127 12.28723934
H 9.95233368 12.38474472 9.26387264
H 11.28706842 12.38649228 10.04582977
H 10.37772125 7.19911790 10.08381869
H 9.92894160 8.45504722 10.86541874
H 13.80038931 8.49426496 11.53129022
H 13.79887228 8.47845643 13.07768694
H 15.16968160 8.48704587 16.81746658
H 13.83031129 8.49385055 17.59153893
H 13.83143130 12.37694592 15.99681185
H 15.16676784 12.38825447 16.77688843
H 9.06807302 10.01987493 16.79385556
H 8.15796606 8.77080809 16.79644281
H 0.40847564 8.76970236 12.30753913
H 1.31019727 10.02406999 12.31072214
H 5.18666296 10.83865890 10.06479870
H 4.29106592 12.09845935 10.06300272
H 6.02048386 12.38109005 11.54352176
H 6.03211295 12.38321918 13.09002900
H 5.21702354 10.83233834 14.57895072
H 5.66566417 12.09557347 15.35007346
H 2.16037275 8.45565956 13.76454533
H 2.61017825 7.19496505 14.53849408
H 3.52510188 12.37720651 14.54057180
H 2.18821671 12.38972389 13.76238103
H 5.64018121 8.73163236 9.26224849
H 4.30714145 8.72534843 10.04647157
H 4.30224720 8.72874452 14.52734852
H 5.64594795 8.73640541 13.76020445
H 1.78845576 12.14191057 17.57437407
H 1.79140687 12.14527301 16.02751635
H 0.42692158 12.13889848 12.29619923
H 1.75812452 12.13413216 11.51162508
H 2.60561997 13.67100824 10.04568829
H 2.16123313 12.41169131 9.26581115
H 2.61244337 7.18594656 10.09267918
H 2.16618505 8.45127596 10.86133558
H 7.40828038 8.48689539 12.29045322
H 6.07333548 8.48162714 11.50855119
H 6.01461281 8.47982744 17.57225119
H 6.02046157 8.47934017 16.02362846
H 7.42335301 12.41463183 16.79548471
H 6.51587816 13.66585805 16.79321827
H 1.33830346 10.03121820 16.78283582
H 1.78170227 8.76917003 16.00934328
