384

O 9.07871276 1.75631044 12.31669845
O 12.98502109 4.50202429 10.05478702
O 14.28205181 5.41675150 12.29198035
O 12.97513475 4.51612277 14.53491215
O 10.34598005 0.85294595 14.56840535
O 10.38447817 5.40763716 14.56024369
O 12.95955428 1.75849123 10.07120917
O 12.92768439 1.77135552 14.55313645
O 9.08551742 4.49420190 16.80420806
O 9.09599413 4.49432890 12.31347186
O 10.39549538 5.40444017 10.06811642
O 10.38131230 0.84380293 10.07840841
O 14.24356983 0.85474730 12.32227821
O 14.24249409 0.86049195 16.78037898
O 14.27100864 5.42198748 16.77779084
O 9.06100945 1.75658595 16.81270983
O 9.09407950 9.06561290 3.33865618
O 12.98187872 11.80621857 1.09187301
O 14.26181842 12.71923276 3.33385039
O 12.97719528 11.80910196 5.57790416
O 10.39011337 8.14764783 5.57675486
O 10.37974440 12.70888913 5.58512105
O 12.97451585 9.06515198 1.08666678
O 12.97247079 9.06662402 5.56731008
O 9.10097711 11.79779527 7.82658919
O 9.08443370 11.80363245 3.33482659
O 10.38665010 12.71467037 1.10401338
O 10.38530871 8.15650795 1.09291355
O 14.26888750 8.16100146 3.32162790
O 14.26494784 8.15321120 7.80534588
O 14.27164663 12.70996469 7.81911071
O 9.09949182 9.05971374 7.82298820
O 1.32515597 9.06677840 3.32791253
O 5.19363781 11.81698725 1.09835712
O 6.49745880 12.71885768 3.34294404
O 5.20339617 11.81400650 5.57806547
O 2.62149812 8.15892934 5.57445664
O 2.61907832 12.71413682 5.58107540
O 5.19679027 9.07060681 1.09497830
O 5.21640049 9.06681356 5.59100834
O 1.32631081 11.80070479 7.81854450
O 1.32357865 11.81189051 3.34150045
O 2.60564600 12.71905921 1.08525043
O 2.61076867 8.15833386 1.07759193
O 6.50246040 8.16674785 3.33633786
O 6.51125483 8.14226481 7.83299759
O 6.51412367 12.71057888 7.82279534
O 1.32231779 9.06333119 7.81444181
O 1.30616136 1.77097113 3.34044347
O 5.19937784 4.51444874 1.09628589
O 6.49556848 5.42852969 3.33645557
O 5.21540306 4.51450165 5.57650825
O 2.61012696 0.85271603 5.58241303
O 2.62292157 5.41803199 5.56864457
O 5.17287587 1.76903810 1.11276194
O 5.20227641 1.77081901 5.59617471
O 1.32519886 4.50515732 7.81411626
O 1.32548081 4.50723075 3.33627733
O 2.61413492 5.41505246 1.08363331
O 2.58786087 0.86192451 1.09486465
O 6.48613181 0.85567122 3.34159165
O 6.49097737 0.85029391 7.83634549
O 6.50995743 5.39980883 7.81954419
O 1.31001436 1.76301445 7.81974093
O 9.08186399 1.76271281 3.34753333
O 12.97726552 4.50623339 1.08021340
O 14.26832009 5.41738422 3.31997122
O 12.97945619 4.50967192 5.56216160
O 10.37400806 0.84593255 5.58318845
O 10.38562711 5.40463094 5.58124325
O 12.96476056 1.76778844 1.09101178
O 12.96097879 1.76712096 5.57450825
O 9.10140501 4.48693963 7.83554760
O 9.08389019 4.50342394 3.34011916
O 10.38533987 5.41151678 1.09978865
O 10.37404230 0.85267230 1.09882290
O 14.24884921 0.86078597 3.33289967
O 14.24980482 0.85108981 7.81656077
O 14.27546686 5.41160194 7.80585477
O 9.08967189 1.74035291 7.83697075
O 1.30871072 1.75456826 12.31468565
O 5.22458008 4.49919169 10.06460589
O 6.50720607 5.40335539 12.30940227
O 5.21248006 4.50549394 14.54942517
O 2.60278653 0.84973241 14.56171435
O 2.62257956 5.41927207 14.54442905
O 5.18375295 1.76163383 10.07839284
O 5.19524664 1.76447322 14.56469266
O 1.31509781 4.51114062 16.78881644
O 1.34057254 4.49878122 12.29191202
O 2.63766806 5.41004612 10.05238592
O 2.60333141 0.84869173 10.06352812
O 6.48439859 0.84905573 12.31676804
O 6.47101475 0.86226090 16.81598613
O 6.50251425 5.40507079 16.80056454
O 1.29674151 1.76464753 16.79332163
O 9.08735041 9.05461755 12.30535495
O 12.97576272 11.79627011 10.05616952
O 14.27001968 12.71516178 12.30056493
O 12.96570458 11.81280750 14.54392739
O 10.37470766 8.15222416 14.55256102
O 10.37373477 12.71125830 14.55432215
O 12.98140670 9.05692933 10.05289421
O 12.96031826 9.06598320 14.54453502
O 9.08492178 11.80142029 16.80611223
O 9.08959960 11.79303723 12.31601653
O 10.39207249 12.70214523 10.07451428
O 10.39697325 8.15103327 10.06864496
O 14.26193793 8.15618287 12.30264087
O 14.26853848 8.16435915 16.78363766
O 14.26917309 12.71634122 16.78385175
O 9.08401030 9.05537974 16.79872672
O 1.32010425 9.06807507 12.30187393
O 5.21163348 11.79788981 10.06216218
O 6.50118899 12.70421773 12.30917768
O 5.21088596 11.80389831 14.55899237
O 2.61870337 8.16390243 14.54291611
O 2.61915696 12.71557672 14.54691263
O 5.20720336 9.05679408 10.07121439
O 5.20907409 9.05675439 14.55112056
O 1.31884034 11.80741771 16.78343365
O 1.32200967 11.80873874 12.30161115
O 2.62413275 12.70617536 10.05648090
O 2.61649886 8.15731074 10.06326339
O 6.50080256 8.14632246 12.30962264
O 6.49477470 8.14982397 16.80338698
O 6.49459275 12.72373565 16.80659680
O 1.31952031 9.06884209 16.78071856
H 9.53641078 1.45603963 11.52444159
H 9.09253934 2.71930898 12.29856105
H 12.95204960 3.53948958 10.05778226
H 12.07121792 4.80710541 10.05678798
H 13.84376465 5.08595509 11.50054791
H 15.18577953 5.08564333 12.27005848
H 13.44962240 4.83339822 13.75930491
H 13.44802085 4.84571860 15.30642574
H 9.91309385 1.17803578 13.77144059
H 11.24685101 1.19371998 14.55060194
H 11.30256615 5.11639228 14.54658778
H 10.40188741 6.37074568 14.55777137
H 13.39249725 1.43071207 9.27604585
H 12.05619207 1.42384342 10.05309889
H 12.95587067 2.73374467 14.56976008
H 13.39321664 1.46693151 15.33964478
H 9.09444157 3.53103183 16.78701716
H 9.55340375 4.79218062 16.01691159
H 8.19195430 4.82579516 12.33194254
H 9.53096607 4.82440050 13.10684196
H 9.92795376 5.07763385 10.84378731
H 9.92235852 5.07126250 9.29780787
H 10.37497095 14.48274088 10.06382671
H 9.92234800 1.13512251 9.28295076
H 13.78079694 1.18537260 11.54503705
H 13.76751565 1.18561334 13.09121133
H 15.15853967 1.15841273 16.78333938
H 14.26742082 14.49974449 16.78382462
H 13.83138158 5.09053651 17.56779127
H 15.17533346 5.09015494 16.80407813
H 9.52311739 1.42322112 16.03591953
H 9.53592464 1.42499066 17.58241234
H 9.55702103 8.73427939 2.56183508
H 9.56689409 8.73362272 4.10914990
H 13.41373262 12.13660896 1.88728310
H 12.07698679 12.13477090 1.11224892
H 13.80754966 12.42411261 4.13021423
H 14.25024727 13.68220375 3.34912334
H 13.41369333 12.13773915 6.37115404
H 12.07049512 12.13231915 5.60221017
H 11.29386560 8.48084824 5.59571116
H 9.95526724 8.48319361 6.36801263
H 9.92636396 12.40651493 4.79117797
H 10.37001537 13.67187609 5.55987834
H 12.05836277 8.76802618 1.08378828
H 12.95522079 10.02833338 1.08839344
H 13.42895372 8.76184757 6.35903647
H 12.98722790 10.02933176 5.59160764
H 9.53321506 12.12944369 7.03183271
H 8.19658451 12.12847432 7.80619632
H 8.16708907 12.09679450 3.33936866
H 9.06907096 10.84046984 3.33711619
H 9.92005644 12.38336733 0.32941066
H 9.91331081 12.38394806 1.87512411
H 9.92238565 8.45192023 0.30133446
H 10.37417620 7.19360075 1.07515096
H 13.79373036 8.48986081 2.55068393
H 13.80451778 8.49391109 4.09696974
H 13.81181489 8.44655268 8.60320949
H 14.25951662 7.19005228 7.82371110
H 14.29003465 13.67295580 7.81560782
H 15.18806829 12.41332132 7.81725787
H 9.55813986 8.76141934 8.61541816
H 9.11026041 10.02285470 7.84054276
H 1.75821789 8.74049050 2.53205617
H 0.41937076 8.73990411 3.30554887
H 5.65696440 12.12236448 0.31075722
H 5.20870292 10.85456291 1.07203346
H 6.02690063 12.39400369 2.56810267
H 6.02368159 12.39060888 4.11496901
H 5.18594506 10.85119095 5.58829719
H 4.28564164 12.10746979 5.58369975
H 2.16742428 8.45916018 4.77989321
H 2.60930978 7.19590018 5.55161522
H 2.14521056 12.38779243 4.80843469
H 2.15062411 12.38424928 6.35545712
H 5.66509891 8.73440573 0.32334323
H 5.67090787 8.75138801 1.86991070
H 5.64834238 8.73574389 6.38530001
H 4.31386142 8.73108691 5.60266378
H 1.33467827 10.83769445 7.83612575
H 1.78913395 12.09772707 8.60926945
H 1.29856709 10.84918418 3.33074858
H 0.40896324 12.11352349 3.33551876
H 3.51160316 12.39239129 1.10631979
H 2.17384799 12.39364382 1.88204615
H 3.52527342 8.46095119 1.08541741
H 2.63839379 7.19559252 1.08129980
H 6.06968872 8.49215027 4.13266381
H 7.40902395 8.49090341 3.35803514
H 6.07576166 8.47113438 8.62639320
H 7.41470463 8.47551952 7.85187863
H 6.49201770 13.67335123 7.80836603
H 6.04706676 12.41192998 7.03525224
H 1.75853008 8.73722012 7.01998964
H 0.41800482 8.73305557 7.79130548
H 1.77353934 1.43895146 2.56630001
H 1.77609292 1.43859815 4.11249714
H 5.66127849 4.80308667 0.30158364
H 5.20494613 3.55139409 1.08566904
H 6.48738077 6.39153602 3.31682764
H 6.04216972 5.12906695 2.54140270
H 5.64766364 4.84758352 4.78253233
H 4.30882742 4.83898617 5.55518827
H 3.52435568 1.15438133 5.58452014
H 2.63351607 14.49176260 5.58257013
H 2.15637869 5.08764567 6.34355537
H 2.15103558 5.08424754 4.79792606
H 5.64058455 1.44105203 0.33709766
H 5.64793442 1.43882080 1.88284855
H 5.65694618 1.46857388 4.80303567
H 5.21361547 2.73369566 5.57007425
H 1.78968536 4.80579279 8.60235247
H 1.33886228 3.54229402 7.83361776
H 0.41137990 4.81022841 3.33007320
H 1.29875655 3.54430177 3.33428399
H 3.51990317 5.08741658 1.10462974
H 2.18150852 5.08979432 1.87996532
H 2.61355214 14.50112507 1.09383592
H 3.50311980 1.16267077 1.10293443
H 7.40238350 1.15103585 3.34212269
H 6.50525589 14.49453152 3.34564600
H 6.02512714 1.18997860 7.06480531
H 6.02091005 1.17587438 8.61112859
H 6.50770907 6.36290756 7.80762401
H 6.05315136 5.11175963 7.02178236
H 1.78222890 1.42978835 7.04913838
H 1.77497129 1.43062563 8.59494546
H 9.53851623 1.46742481 2.55292884
H 9.08633277 2.72579627 3.32940809
H 13.41201163 4.83779960 1.87331072
H 12.07141433 4.83238797 1.10376588
H 14.25984423 6.38040704 3.33859314
H 13.81074027 5.12171646 4.11444626
H 12.07358975 4.83549206 5.59077001
H 13.41773229 4.83278251 6.35671396
H 11.27774558 1.17875487 5.56390168
H 9.93920666 1.18344275 4.79258829
H 10.37596151 6.36751132 5.60440001
H 9.93425743 5.10115296 6.37580584
H 13.41523958 1.46985647 0.29379454
H 12.97209673 2.73085593 1.07090007
H 13.41528541 1.46997862 4.77872955
H 12.97421698 2.73005574 5.55662813
H 8.18546011 4.78437015 7.82478106
H 9.07980631 3.52408361 7.83154623
H 9.52046768 4.83139173 4.13364216
H 8.18214911 4.84042523 3.35861639
H 9.91352328 5.08697685 1.87405139
H 9.91817797 5.07474904 0.32789741
H 11.28891826 1.15289130 1.09700187
H 10.39685853 14.49178541 1.10678708
H 15.15451672 1.18710025 3.31503792
H 13.81775277 1.18896793 2.53623708
H 15.15259768 1.18541589 7.79961760
H 13.81682442 1.18307536 7.02263449
H 13.84076457 5.07750150 8.59747456
H 15.18142404 5.08450987 7.82848956
H 8.18307159 1.41640689 7.81861940
H 9.51967808 1.41546489 7.03869315
H 0.40074121 1.43503623 12.33974211
H 1.74355410 1.42015525 13.10613720
H 4.32078566 4.83177198 10.04265545
H 5.65855374 4.82030514 9.26668756
H 6.05578643 5.10395345 11.51259939
H 6.49533377 6.36634903 12.28767327
H 5.64531335 4.83382428 13.75388717
H 4.30949281 4.84001918 14.53232465
H 3.51669218 1.15273783 14.55717179
H 2.62884228 14.48882875 14.55608972
H 2.60599043 6.38217772 14.56118259
H 2.16255230 5.12070220 15.33577955
H 5.64500669 1.45866695 10.86762500
H 5.20902041 2.72445137 10.09314138
H 5.64976771 1.46097027 13.77183955
H 5.20378924 2.72737609 14.53771739
H 1.32342568 3.54815034 16.80461872
H 1.77893978 4.80523974 17.58021447
H 1.34292383 3.53606953 12.32078258
H 1.78940156 4.80131714 13.08828522
H 2.61586371 6.37257222 10.07537378
H 2.18224715 5.10447049 10.84416385
H 2.16305651 1.16916862 10.85766984
H 3.50460845 1.18812214 10.09067034
H 7.40040127 1.14581059 12.31629276
H 6.50668152 14.48820662 12.31808969
H 7.37531688 1.19351204 16.79916735
H 6.04037994 1.19171667 16.01960392
H 6.06910617 5.07801339 16.00506924
H 7.40772001 5.07580507 16.77939956
H 1.77196022 1.43378150 16.02353546
H 1.76385771 1.43571031 17.56892343
H 9.06763484 10.01763664 12.30860272
H 8.17078905 8.75849403 12.30741768
H 13.43876138 12.09652106 9.26686027
H 12.98996768 10.83327420 10.03842631
H 14.24171500 13.67789369 12.28729530
H 13.80978434 12.41173656 11.51083623
H 13.43992966 12.13901540 15.31612824
H 13.43644325 12.13743333 13.76912278
H 9.94171475 8.47795808 13.75621917
H 11.27733726 8.48794239 14.53560733
H 10.38517874 13.67444511 14.55885779
H 11.29261293 12.42255050 14.55116278
H 12.07521582 8.73053586 10.07812913
H 13.41396292 8.73207455 10.84990195
H 13.42021774 8.76819732 15.33666606
H 12.97644544 10.02868733 14.56089436
H 9.09042553 10.83857018 16.78320422
H 9.54186518 12.09910098 16.01249985
H 9.55816690 12.12764009 13.08834803
H 9.56034130 12.11929666 11.54178308
H 9.95447972 12.37559258 9.28113110
H 11.29683282 12.37212975 10.04692401
H 10.38292011 7.18811987 10.08310752
H 9.92962230 8.44716290 10.85698936
H 13.80341754 8.44858323 13.09715775
H 14.26019171 7.19298443 12.31613981
H 13.80858704 8.46118044 17.57610853
H 14.25848286 7.20133850 16.80055377
H 13.83548797 12.38869047 17.57887085
H 15.17333562 12.38447708 16.80494385
H 9.51790584 8.72908175 16.00300391
H 8.17868770 8.72751707 16.77654912
H 0.40504817 8.76794522 12.30316591
H 1.29699878 10.03120759 12.29830177
H 5.68215704 12.12134926 10.83770679
H 5.68354098 12.12644260 9.28974213
H 7.40497290 12.37270966 12.33230582
H 6.06442464 12.37694609 13.10279352
H 5.64209416 12.14054371 15.35150109
H 4.30571009 12.13209227 14.57300992
H 2.14821841 8.49207572 13.76913432
H 2.14654671 8.49295088 15.31534751
H 2.14789499 12.38218941 15.31785175
H 2.15142987 12.38993275 13.77052304
H 4.29034800 8.76171803 10.06399917
H 5.18839446 10.01969083 10.06407498
H 4.29085044 8.76524608 14.55176251
H 5.19230636 10.01969442 14.55950356
H 1.77588882 12.10777275 17.57641828
H 1.33228091 10.84430013 16.80406688
H 1.76361693 12.13418551 11.50996455
H 0.42010650 12.14608654 12.27524883
H 2.64271372 13.66916134 10.05791392
H 3.54103643 12.41138663 10.05991388
H 2.14501133 8.47917934 9.28777671
H 2.14425612 8.48932877 10.83438350
H 6.02949857 8.47697875 11.53728385
H 6.02939934 8.47450642 13.08300400
H 6.03583964 8.44803656 16.01074786
H 6.48599465 7.18693576 16.78348562
H 6.51415668 13.68681921 16.80773016
H 7.41001109 12.42494704 16.80243122
H 1.75857370 8.73408322 17.57005237
H 0.41414388 8.74073553 16.80551647
