384

O 9.09113034 1.75694968 12.31390059
O 12.97553731 4.50179673 10.04905613
O 14.26681174 5.41181153 12.29389153
O 12.97468849 4.50321782 14.54227687
O 10.38203313 0.84662973 14.55666839
O 10.37686211 5.40072929 14.54852636
O 12.96749846 1.76055185 10.05930004
O 12.97640964 1.75658835 14.54593855
O 9.10116037 4.49476247 16.80346038
O 9.09043614 4.50061397 12.30752189
O 10.38565094 5.39766584 10.05657341
O 10.38647648 0.84183994 10.06947417
O 14.27416391 0.85848669 12.30466177
O 14.25526505 0.85851769 16.79620153
O 14.26973018 5.42265740 16.79003666
O 9.09041637 1.75295683 16.79683493
O 9.07774790 9.05861081 3.33981456
O 12.97910728 11.79877146 1.08476237
O 14.27796502 12.70805814 3.33379416
O 12.98154243 11.80034357 5.57057790
O 10.37282674 8.15744058 5.58129354
O 10.38766215 12.70921915 5.57164208
O 12.94836428 9.05984152 1.09152052
O 12.96231009 9.06270764 5.57877773
O 9.09258667 11.80751294 7.82055971
O 9.08948360 11.80215239 3.32674116
O 10.38584568 12.71951891 1.08683496
O 10.35716196 8.15140774 1.08941009
O 14.25562519 8.15651184 3.32999302
O 14.26539069 8.15138454 7.81483695
O 14.28333582 12.70104206 7.82069461
O 9.08813546 9.06294322 7.83661830
O 1.31317234 9.07194456 3.33946531
O 5.19395815 11.80134986 1.09864615
O 6.49483110 12.72097556 3.33857355
O 5.21079998 11.80897283 5.59030751
O 2.61150910 8.16277727 5.57261267
O 2.62206587 12.71339452 5.57683878
O 5.19222969 9.06244453 1.10275612
O 5.20615625 9.06426980 5.58622270
O 1.33377117 11.80783279 7.81540866
O 1.33942433 11.81164388 3.32427569
O 2.61249635 12.71837875 1.07815929
O 2.59830049 8.16934443 1.09180342
O 6.48890440 8.15346235 3.33792670
O 6.49262693 8.16061070 7.83368526
O 6.50326808 12.71558184 7.82870977
O 1.31756512 9.06307627 7.81602985
O 1.32296971 1.75896481 3.33188053
O 5.19471340 4.50540232 1.10179538
O 6.49483596 5.41156776 3.33921373
O 5.21370102 4.51508629 5.59050192
O 2.61938296 0.85379172 5.57938760
O 2.62118113 5.42349714 5.58766910
O 5.19307611 1.76577729 1.10536919
O 5.20319276 1.76999562 5.59166434
O 1.33570901 4.50709912 7.82821823
O 1.33068782 4.50109093 3.34589270
O 2.61002723 5.42737958 1.08772948
O 2.60363283 0.85296380 1.08453353
O 6.49445342 0.86058074 3.34624369
O 6.49774707 0.85269291 7.83594357
O 6.50843061 5.41311976 7.83419379
O 1.32096180 1.76625823 7.81960650
O 9.08441696 1.75737027 3.33678606
O 12.98162354 4.50464126 1.09268974
O 14.27490186 5.41549163 3.33498980
O 12.97560307 4.50192320 5.57406490
O 10.37906637 0.85109722 5.58013177
O 10.38591119 5.41258221 5.57100335
O 12.96659488 1.76357416 1.09900574
O 12.96763589 1.75772873 5.57527742
O 9.09629245 4.49312207 7.81241673
O 9.08602963 4.50162720 3.33066863
O 10.38950982 5.41108391 1.09375422
O 10.38362083 0.85473246 1.09602353
O 14.26302753 0.84622271 3.33164498
O 14.26536484 0.84204083 7.81210818
O 14.27836405 5.41055901 7.81664094
O 9.09308560 1.74660038 7.82488593
O 1.32315614 1.77127806 12.30325474
O 5.21740414 4.50560639 10.07766912
O 6.50580527 5.40888139 12.32140241
O 5.20600203 4.50602709 14.56495981
O 2.60445754 0.86564541 14.55186903
O 2.61568211 5.41213018 14.55091301
O 5.21305159 1.76190859 10.07630591
O 5.19923420 1.76906624 14.56470149
O 1.31608895 4.51411823 16.78265036
O 1.33036154 4.50901455 12.30068617
O 2.62834161 5.41825450 10.06580137
O 2.61983622 0.85863139 10.06324879
O 6.49970082 0.85033969 12.32558535
O 6.49350639 0.85031818 16.80211980
O 6.50311559 5.40827386 16.80706206
O 1.30895072 1.76974879 16.79011242
O 9.06967676 9.05818530 12.30904062
O 12.97752986 11.79029168 10.05502119
O 14.27121366 12.71958891 12.29532564
O 12.97145166 11.81008665 14.53902242
O 10.36884044 8.14652647 14.54676491
O 10.38485928 12.71134562 14.54154797
O 12.96251403 9.04711465 10.05892079
O 12.95236615 9.06719855 14.54238031
O 9.09202020 11.80301135 16.78915344
O 9.09283664 11.80288173 12.30531195
O 10.38931745 12.70464414 10.06205248
O 10.37298854 8.13870867 10.07206129
O 14.25467745 8.15463894 12.30851228
O 14.23983141 8.16177859 16.78940732
O 14.25874179 12.71910155 16.78260717
O 9.07692256 9.06264852 16.78431489
O 1.31398335 9.07263826 12.30968819
O 5.21516048 11.80571602 10.07705640
O 6.50983811 12.70541763 12.32111849
O 5.19914576 11.80266442 14.55656335
O 2.59765268 8.15276360 14.55785104
O 2.61716277 12.72633129 14.54688147
O 5.20004398 9.06763637 10.07102931
O 5.19012349 9.05817655 14.56148647
O 1.31204317 11.81766648 16.78453170
O 1.32326723 11.81677209 12.29976721
O 2.62787818 12.71924919 10.06041234
O 2.61252926 8.15660643 10.06426219
O 6.48022633 8.15137284 12.31493546
O 6.48876136 8.15039783 16.80366053
O 6.49986779 12.70841299 16.80135161
O 1.29389682 9.07103721 16.79803109
H 9.06881570 2.71998582 12.31239783
H 8.17462034 1.46080866 12.31518909
H 13.44208471 4.83567711 10.82275658
H 13.45013833 4.82716903 9.27643732
H 14.25466305 6.37457111 12.32022923
H 13.80873691 5.10905490 13.08514553
H 12.95388959 3.54041188 14.54552996
H 12.05827310 4.79932723 14.54535043
H 10.37546745 14.48583157 14.53146407
H 9.92712209 1.14869624 13.76325537
H 9.92023999 5.10793452 13.75235898
H 10.36584458 6.36363062 14.53407423
H 12.98511099 2.72368707 10.07201299
H 13.43223003 1.46449386 10.84906004
H 13.40747155 1.43496560 15.34531045
H 12.07219402 1.42601353 14.56707406
H 9.54695427 4.79221099 16.00303667
H 9.10488244 3.53177890 16.78084035
H 8.18654941 4.83326307 12.28682305
H 9.52527602 4.82215585 11.51062606
H 10.40268705 6.36060239 10.05947366
H 11.30320032 5.10446173 10.05404063
H 9.95210963 1.17289993 10.86249500
H 11.29002420 1.17553971 10.08623720
H 14.26062700 14.49738789 12.31292794
H 13.81282093 1.14912758 13.09875660
H 13.79860068 1.15673723 17.59009778
H 14.24602914 14.49758127 16.81411231
H 15.17424402 5.09170606 16.76388675
H 13.83078600 5.09034558 16.00005676
H 9.52679978 1.41721371 16.00618809
H 8.18487447 1.42632334 16.77483341
H 9.08939391 10.02157020 3.34754960
H 9.53766950 8.76934857 4.13501947
H 13.43741218 12.09232094 1.87888783
H 12.97308671 10.83567886 1.10603340
H 14.29011251 13.67128453 3.32733446
H 15.19622383 12.41800742 3.32956619
H 13.45567673 12.13340477 4.80093134
H 13.45003035 12.12475237 6.34680229
H 11.27870338 8.48445995 5.59940150
H 9.94083787 8.48627239 6.37644352
H 11.29289644 12.38126444 5.55421674
H 9.95523285 12.38046255 4.77673307
H 12.04185981 8.73540063 1.07199330
H 13.38036443 8.73296888 0.29500637
H 13.41716393 8.75725563 4.78662077
H 12.98415231 10.02555289 5.55496368
H 9.52655921 12.12977397 7.02359167
H 8.18869004 12.13973824 7.80190942
H 8.18508085 12.13188477 3.31120423
H 9.52295449 12.13470997 2.53377956
H 11.29981192 12.41694492 1.08847788
H 10.41139005 13.68244731 1.08943981
H 9.90497108 8.44632883 1.88689699
H 10.35394041 7.18842907 1.10690738
H 13.79369498 8.44764244 2.53669214
H 14.25255818 7.19345192 3.31410975
H 13.79332420 8.47844167 7.04159921
H 13.78946829 8.46915424 8.58939684
H 14.26054352 13.66363823 7.83939016
H 13.81651793 12.39633380 8.60627412
H 8.17224522 8.76502092 7.82770825
H 9.06624561 10.02581291 7.82961518
H 1.74374043 8.73514606 4.13264580
H 0.40783320 8.74379984 3.35282464
H 5.20921275 10.83835040 1.07951580
H 5.65569779 12.10118320 0.30843853
H 6.03004910 12.39132946 4.11495101
H 6.02155612 12.38837666 2.56861330
H 5.18864753 10.84611875 5.58613041
H 4.29499891 12.10836473 5.58652177
H 2.60338425 7.19982305 5.59895073
H 2.15481972 8.46490445 6.36527881
H 2.16205174 12.42128555 6.37130070
H 2.61551326 13.67648501 5.59138202
H 5.65695060 8.72882568 0.32796598
H 5.66570125 8.73127081 1.87359840
H 4.30079892 8.73670404 5.56386683
H 5.64001632 8.73761771 4.79065328
H 1.77092723 12.13567698 8.60840530
H 0.42828903 12.13659402 7.84061778
H 1.79035827 12.10859768 4.12189332
H 1.33758468 10.84866143 3.34860101
H 2.17953000 12.39013722 1.87386377
H 3.51483070 12.38154022 1.09721396
H 3.50509707 8.49293850 1.11503207
H 2.16478318 8.49418672 1.88816171
H 6.51501710 7.19070034 3.33836311
H 7.40365930 8.45544035 3.34168175
H 6.49229545 7.19762361 7.81450393
H 6.04048358 8.45377251 7.03514217
H 6.02934477 12.38019106 7.05996013
H 6.04091440 12.38587418 8.60675673
H 1.30360790 10.02630682 7.81717174
H 0.39901488 8.77316225 7.81594009
H 0.41613027 1.43553100 3.31439659
H 1.75363716 1.42304327 2.53842534
H 5.63423405 4.83265793 0.30982785
H 4.29228042 4.84123877 1.07821550
H 7.39797513 5.07816374 3.31682551
H 6.05604309 5.08439037 2.54666449
H 4.30859010 4.84375322 5.57416017
H 5.64432432 4.84576069 4.79502591
H 3.52198647 1.18992683 5.56410637
H 2.18648638 1.18153531 4.78415030
H 2.15853145 5.08766469 6.36296416
H 2.15277643 5.08784555 4.81610236
H 5.19885620 2.72867362 1.12389723
H 5.65215569 1.46970993 1.89840719
H 5.21592662 2.73291126 5.57456061
H 5.66226717 1.47234343 4.79893465
H 1.34059575 3.54411144 7.84478644
H 1.79549993 4.80102063 8.62193103
H 1.34252615 3.53836900 3.31629939
H 1.77897013 4.80839484 2.55116359
H 2.15134902 5.13081126 0.29490408
H 2.59251795 6.39037681 1.07563869
H 2.63285152 14.49208045 1.08169249
H 3.51741556 1.15725398 1.09385967
H 7.41234928 1.15189926 3.34482213
H 6.50881072 14.49969161 3.34288457
H 6.04421578 1.15825514 7.04311786
H 6.48453172 14.49191525 7.81037527
H 6.07179802 5.08847901 7.03935700
H 7.41258295 5.08237453 7.80966462
H 1.76171380 1.43752316 7.02886008
H 0.41803656 1.43298457 7.79468896
H 9.09888796 2.72011987 3.35531865
H 9.54387031 1.45764123 4.12859257
H 13.44993433 4.83181165 1.86796578
H 13.45172917 4.83662440 0.32073745
H 13.83548507 5.08548241 4.12577107
H 15.17815957 5.08267304 3.35797511
H 13.41213301 4.82944336 6.36750734
H 12.07351593 4.83884600 5.59357893
H 10.37571163 14.49012365 5.59017525
H 9.92028951 1.13802791 6.37706386
H 10.36572113 6.37513629 5.59547463
H 9.93064732 5.10508341 6.36239235
H 12.04796037 1.47404826 1.09599370
H 12.95480445 2.72676693 1.09396131
H 12.05181455 1.45902263 5.57914860
H 12.94632975 2.72061776 5.57504167
H 9.55209495 4.79205743 8.60684437
H 9.10453782 3.53042082 7.83550413
H 9.56058141 4.82615619 2.55784299
H 9.55146901 4.83754828 4.10406352
H 11.29648010 5.08806553 1.07362155
H 9.95705880 5.07496616 0.30100092
H 9.91196763 1.18037474 1.86993389
H 9.91057664 1.17741852 0.32148730
H 13.79048781 1.17944993 2.56105702
H 13.79434869 1.17515788 4.10617069
H 13.80025996 1.17641124 8.58602922
H 13.79105737 1.17062881 7.04070990
H 15.19435031 5.11327774 7.81787246
H 14.29744328 6.37339699 7.81103740
H 8.18620439 1.42321309 7.84862344
H 9.52756914 1.41996376 8.61988152
H 0.42041022 1.43539970 12.32442224
H 1.75743412 1.44411440 13.09857652
H 5.22856040 3.54266380 10.05581520
H 5.67347035 4.80471231 9.28356867
H 6.48453794 6.37156824 12.30019136
H 6.04936633 5.10516577 11.52916342
H 5.67543681 4.83299259 15.33991564
H 5.68018396 4.83372220 13.79340841
H 2.60412139 14.50458700 14.56714931
H 2.14384610 1.15613612 15.34639562
H 2.18448495 5.08535333 13.75413157
H 3.52357596 5.09153974 14.53279449
H 4.30639482 1.43858041 10.04901380
H 5.64958347 1.42794757 9.28493718
H 5.18410790 2.73231340 14.56591074
H 4.28209914 1.47552489 14.56364107
H 1.32538389 3.55107383 16.77259930
H 1.77959796 4.80369436 15.98931517
H 0.41679866 4.81393507 12.30173791
H 1.30033296 3.54602430 12.30025574
H 2.19076129 5.09060190 10.85895322
H 3.53403876 5.09172329 10.08976318
H 2.15225720 1.18785647 10.83816805
H 2.14753889 1.18671791 9.29108516
H 6.02766499 1.18117010 13.09704211
H 6.03011486 1.17565388 11.55022334
H 6.02828543 1.18072457 17.57778470
H 6.02222806 1.18661823 16.03227744
H 6.52702269 6.37124459 16.80874027
H 7.41748470 5.10640198 16.80851471
H 1.74584137 1.43949319 17.58240368
H 0.40306278 1.44342350 16.81448711
H 9.52967692 8.75550002 13.09955275
H 9.09241187 10.02081727 12.32866093
H 12.95132465 10.82748368 10.06003342
H 12.06271791 12.09148077 10.05831174
H 15.17671051 12.39131686 12.27260989
H 13.83382597 12.38277656 11.50631494
H 13.43934260 12.13712182 13.76339239
H 13.43967350 12.14638611 15.31055876
H 11.27230515 8.48008684 14.56563539
H 9.93512592 8.47616646 15.34128413
H 9.94744787 12.38138605 15.33347362
H 11.28983092 12.38237420 14.56234051
H 13.40120271 8.72339809 10.85296872
H 12.05890690 8.71531515 10.08529812
H 12.96763367 10.03010377 14.55864477
H 13.41139233 8.76851316 15.33487266
H 9.52702936 12.13854368 17.57999737
H 8.18720016 12.13280581 16.80815043
H 9.56338284 12.12698737 11.52990620
H 9.56584317 12.13047949 13.07777234
H 10.38171774 13.66771256 10.04558820
H 9.92947174 12.41103882 9.26832066
H 9.90213856 8.46859713 10.84461676
H 9.90589108 8.47317089 9.29883658
H 15.15837473 8.48648880 12.32757511
H 13.81829155 8.49076705 13.09874983
H 14.27093511 7.19895455 16.78426592
H 15.15343860 8.46687638 16.79475749
H 15.16571579 12.39474345 16.80149076
H 13.82612581 12.37727406 17.57234683
H 9.52139000 8.75952076 17.58333945
H 9.09098426 10.02553101 16.80781818
H 1.78114380 8.74160754 13.08397803
H 1.78060787 8.73666874 11.53741908
H 5.67380673 12.10114650 10.87067775
H 5.21710481 10.84282561 10.09637876
H 6.52361624 13.66824752 12.32367505
H 7.42820124 12.41476778 12.31592867
H 5.20481491 10.83962220 14.54088417
H 5.66519825 12.09589521 13.76629832
H 2.13733791 8.45448746 15.34788006
H 2.58642915 7.19009608 14.57840876
H 3.52007668 12.39127982 14.52673291
H 2.18200385 12.39767989 13.75302419
H 4.29430970 8.74060469 10.04944870
H 5.63285708 8.73731322 9.27616983
H 5.61975549 8.72511898 13.76658437
H 4.28423723 8.73156682 14.54670669
H 1.78300216 12.14428088 16.01060042
H 1.78223253 12.14924500 17.55711795
H 1.78766493 12.11469283 11.51010351
H 1.33411520 10.85386114 12.28286420
H 3.54408457 12.42265761 10.06588651
H 2.64644774 13.68210654 10.06100809
H 2.15066953 8.45450368 9.27356003
H 2.60585468 7.19360205 10.04489592
H 7.38467500 8.48222729 12.29940160
H 6.04928206 8.48265480 11.51984325
H 7.38947438 8.49029555 16.77806829
H 6.04752241 8.47261852 16.01046166
H 6.04117752 12.40828814 16.00944743
H 6.48174988 13.67117821 16.78316663
H 1.75655015 8.78247898 17.59205392
H 1.30992286 10.03408728 16.80535797
