384

O 9.08300895 1.76588617 12.31868039
O 12.97434275 4.49722749 10.05558823
O 14.26063763 5.40522615 12.30043610
O 12.96840638 4.50443290 14.55002805
O 10.36612828 0.85150245 14.56841447
O 10.37729332 5.41570422 14.55053209
O 12.95695983 1.75763630 10.07215492
O 12.95687121 1.76064323 14.56967914
O 9.07683352 4.50179235 16.79153965
O 9.10058021 4.50449598 12.30382141
O 10.39422344 5.40761392 10.05532777
O 10.36980681 0.85504514 10.07413893
O 14.24519207 0.84817013 12.32095790
O 14.26106649 0.84934266 16.80607908
O 14.27463409 5.40761949 16.79118299
O 9.06624409 1.75632827 16.81211101
O 9.08897503 9.07569294 3.33988922
O 12.97141018 11.80093894 1.09175092
O 14.27981341 12.71638257 3.33230948
O 12.97971463 11.80570272 5.56761722
O 10.38787458 8.16102270 5.57966640
O 10.38725010 12.71078770 5.58007591
O 12.96274385 9.06141471 1.09861026
O 12.97476872 9.06560097 5.57325161
O 9.09875229 11.80021796 7.82183523
O 9.09120477 11.81677194 3.33969577
O 10.38644639 12.71728148 1.09495093
O 10.36787906 8.16189601 1.09564046
O 14.26835547 8.15540143 3.33369585
O 14.26091024 8.15634309 7.81201531
O 14.27048266 12.71436372 7.81438831
O 9.08971683 9.05781606 7.81984581
O 1.32071953 9.06717257 3.33140623
O 5.20767851 11.80030344 1.09480690
O 6.50433056 12.71850418 3.33473617
O 5.22092825 11.80764698 5.58942035
O 2.61087582 8.15729833 5.57587335
O 2.62422253 12.72088223 5.57734415
O 5.19867871 9.06343302 1.09691542
O 5.20032332 9.06521575 5.58543138
O 1.33220454 11.80518636 7.81407921
O 1.33182269 11.81167723 3.32786171
O 2.61372282 12.70816397 1.07779221
O 2.61237670 8.15680141 1.09420597
O 6.49639986 8.15896019 3.33270734
O 6.49643962 8.15470263 7.83340450
O 6.51221985 12.71187482 7.82846440
O 1.31968346 9.06621080 7.81895645
O 1.31894133 1.75813711 3.33096055
O 5.19879707 4.51293193 1.09193493
O 6.50146916 5.41821540 3.33570257
O 5.21070718 4.51092084 5.58750397
O 2.60356859 0.85728267 5.58086105
O 2.61338851 5.41324869 5.58146470
O 5.19435616 1.77018256 1.09936075
O 5.19364254 1.76569145 5.58727890
O 1.30710291 4.49888957 7.82157389
O 1.32106645 4.50140523 3.33469611
O 2.61044948 5.41004266 1.09066497
O 2.61516201 0.84893255 1.09060809
O 6.48676981 0.85929659 3.34482929
O 6.49083178 0.84956850 7.83445410
O 6.51000137 5.41741096 7.82693309
O 1.30611716 1.75789351 7.82553937
O 9.08169189 1.76288243 3.34412621
O 12.96319664 4.51176426 1.08563572
O 14.26614694 5.41378816 3.32312134
O 12.97584657 4.51412958 5.56957355
O 10.37343902 0.85560697 5.58955928
O 10.38185263 5.41785893 5.57179852
O 12.95579855 1.76779990 1.09810132
O 12.96419311 1.77009185 5.58168971
O 9.09633654 4.50268108 7.81652055
O 9.08607773 4.50286091 3.33148510
O 10.37576365 5.41671178 1.08306129
O 10.36992400 0.85273993 1.10278083
O 14.25985343 0.86063844 3.33622720
O 14.25361073 0.85668817 7.83728270
O 14.26204659 5.41726527 7.81643127
O 9.07719376 1.76387451 7.83080154
O 1.29582771 1.76693474 12.30372024
O 5.20294967 4.50831478 10.05983018
O 6.50795093 5.40654722 12.30175350
O 5.21359267 4.49493639 14.54696947
O 2.60312871 0.85213530 14.54224160
O 2.61828616 5.40737904 14.54409580
O 5.18595114 1.75995080 10.07336721
O 5.19585944 1.75711634 14.55148130
O 1.33128307 4.49108291 16.78245406
O 1.31540369 4.51012017 12.29717450
O 2.61582706 5.41663506 10.06288289
O 2.60008981 0.85184062 10.05914546
O 6.49428182 0.85370121 12.31087218
O 6.47980339 0.84981984 16.79936788
O 6.49115401 5.41384268 16.78940218
O 1.31688169 1.75241296 16.79212274
O 9.09681871 9.05670701 12.31670467
O 12.97339066 11.81169193 10.06447255
O 14.27159327 12.70849548 12.30645111
O 12.98306180 11.79499719 14.55355196
O 10.38324351 8.15621578 14.55798927
O 10.39250758 12.70619844 14.55574720
O 12.97727435 9.06789416 10.06383761
O 12.97913142 9.05183264 14.55580381
O 9.09815239 11.80691591 16.79750649
O 9.10093798 11.80022031 12.30892733
O 10.38273859 12.71371587 10.06828571
O 10.38292626 8.15175277 10.05848735
O 14.26416221 8.14953154 12.30561872
O 14.26243198 8.15290703 16.80375615
O 14.27358344 12.70810996 16.79511690
O 9.07625156 9.06826068 16.79587450
O 1.31992873 9.06150458 12.30358976
O 5.21035011 11.80227069 10.06577818
O 6.50941647 12.71188559 12.30062890
O 5.21333896 11.80657877 14.54105735
O 2.61210432 8.15216853 14.54837845
O 2.62534537 12.71153692 14.54092682
O 5.20025884 9.06497532 10.06890624
O 5.20419390 9.06021748 14.54144545
O 1.33248902 11.80417425 16.77781115
O 1.33269846 11.80058385 12.30567746
O 2.61963821 12.70614399 10.05802127
O 2.61548051 8.15969497 10.06519539
O 6.50514539 8.15381206 12.30341387
O 6.48902267 8.15292664 16.79855402
O 6.50390907 12.70900457 16.79518430
O 1.32208295 9.05994246 16.79088650
H 9.53826073 1.46636997 11.52455466
H 9.10008923 2.72891116 12.29898613
H 12.98084052 3.53415105 10.07850254
H 13.43486723 4.79724518 10.84671421
H 15.17749099 5.10935271 12.29977295
H 14.28333524 6.36813575 12.29797213
H 12.06593491 4.84046562 14.53547413
H 13.40020213 4.82998759 13.75306185
H 9.91291840 1.14983697 13.77267225
H 10.36435615 14.49090338 14.54430842
H 9.92100384 5.11060287 15.34187560
H 10.36417811 6.37859958 14.57588625
H 13.43260371 1.42393870 9.30352844
H 13.41792046 1.42698550 10.85028963
H 12.93443956 2.72348133 14.56400867
H 12.04113415 1.46208815 14.56563170
H 9.53765804 4.80604467 17.58079926
H 9.08589469 3.53920297 16.81928816
H 8.19537992 4.83345735 12.31523703
H 9.52723878 4.83694003 13.10078435
H 11.29920181 5.07765413 10.07646621
H 9.95984103 5.07931792 10.84975960
H 9.93506742 1.18620072 9.28122624
H 11.27627953 1.18038708 10.05228512
H 13.80884646 1.17628746 13.11414786
H 15.14755568 1.18413331 12.33774815
H 13.79811692 1.15105047 16.01710251
H 14.25030761 14.48865124 16.78208114
H 15.17775222 5.07456941 16.76679661
H 13.83500252 5.08084648 15.99903413
H 9.53943487 1.42713647 17.58401605
H 9.53628073 1.42851965 16.03804099
H 9.09618623 10.03877460 3.35689761
H 9.54591359 8.77914401 4.13387265
H 13.43390399 12.10529841 1.87961444
H 12.98586133 10.83807046 1.11651686
H 13.81360319 12.41459714 4.11947021
H 14.25834949 13.67896904 3.34990600
H 12.06455096 12.10570923 5.57303924
H 12.95513290 10.84267932 5.57135960
H 9.92401073 8.45185370 6.37231060
H 10.36970947 7.19787835 5.58761663
H 10.37641627 13.67376444 5.56867008
H 9.92841323 12.42200779 4.78359626
H 13.42890111 8.73031505 0.32347634
H 13.43465316 8.72932816 1.86972430
H 12.07104518 8.73229411 5.59176293
H 13.40609327 8.73531676 6.36899269
H 9.55679021 12.09695375 7.02822787
H 9.11074256 10.83731839 7.80761939
H 9.52699573 12.13954853 2.54364059
H 8.18667557 12.14736967 3.31619829
H 11.28907652 12.38122193 1.08181635
H 9.95617325 12.38778359 0.29862421
H 9.93911207 8.49553456 1.89109851
H 11.27301846 8.49071230 1.11075102
H 15.17192281 8.48827035 3.35252215
H 13.83204077 8.48690733 4.12590370
H 13.81103182 8.45886040 8.60785581
H 14.25441823 7.19333932 7.83799226
H 13.83890131 12.38452725 7.01920007
H 15.17529278 12.38535678 7.79722268
H 8.18146434 8.73860044 7.84450616
H 9.52280145 8.72806393 8.61456176
H 1.77661114 8.76825872 2.53717043
H 1.33559758 10.02993199 3.31243520
H 4.29220195 12.09848791 1.08733705
H 5.18535919 10.83723861 1.09735905
H 6.48153096 13.68138538 3.32167416
H 6.03959248 12.41831201 2.54645650
H 5.66997709 12.10802649 4.79219241
H 5.22362849 10.84481842 5.56380963
H 2.59669536 7.19440363 5.55916278
H 2.15425927 8.45648685 4.78222544
H 2.19273343 12.38901561 6.37204250
H 3.52938397 12.39331157 5.59535710
H 5.66954581 8.73377410 1.86995161
H 5.66583741 8.73138812 0.32284254
H 5.63797994 8.73176354 4.79527028
H 4.29493468 8.73746972 5.55946901
H 1.33782830 10.84222683 7.83455552
H 1.78461329 12.10203269 8.61102223
H 0.42688686 12.14139653 3.35141659
H 1.76748608 12.13537362 4.12316547
H 2.16264184 12.41350227 1.87639375
H 2.61207959 13.67118606 1.10081781
H 2.18020871 8.48436928 0.29836024
H 3.51846203 8.48320156 1.07527846
H 7.41000567 8.46312917 3.34194111
H 6.52414223 7.19606970 3.33853808
H 6.02389681 8.48621978 8.60454185
H 6.02827662 8.48140209 7.05794373
H 6.07741649 12.37747200 7.03629919
H 7.41704930 12.38211142 7.80569363
H 1.75548318 8.73779138 7.02516827
H 0.41511448 8.73678449 7.79578979
H 0.40194153 1.46323972 3.32757728
H 1.29800534 2.72114612 3.33014142
H 5.66730729 4.84276010 0.31766217
H 5.67147177 4.83794268 1.86537331
H 7.40306292 5.07988156 3.35307109
H 6.06639264 5.09278592 4.13073520
H 5.64637635 4.84349015 6.37948312
H 4.30706718 4.84290758 5.60549080
H 2.14556023 1.15271807 4.78689930
H 2.60295737 14.49641456 5.55970039
H 2.14115729 5.08024147 6.35173022
H 2.14935066 5.08128943 4.80559450
H 5.21062869 2.73277305 1.07267928
H 5.65236870 1.46303605 0.30961632
H 4.27618792 1.47229928 5.58886604
H 5.17772500 2.72867269 5.59680289
H 1.32114550 3.53593436 7.84427855
H 1.77232421 4.80243624 8.60806222
H 0.41741491 4.83373028 3.31163647
H 1.75815165 4.82962694 2.54158741
H 3.52738787 5.11435217 1.09109275
H 2.63258760 6.37291549 1.08814990
H 2.17857665 1.18055904 1.88246621
H 3.51813830 1.18385997 1.10980324
H 6.01993897 1.19496100 2.57227817
H 6.01623191 1.18814533 4.11831627
H 6.02890711 1.14991834 7.04468682
H 6.48552708 14.48854482 7.81046529
H 6.52837720 6.38046583 7.83007420
H 7.42613856 5.12061710 7.82371120
H 1.77457874 1.43336109 7.04905795
H 1.78005172 1.42550678 8.59575324
H 9.51334849 1.42213276 2.55328769
H 8.17473533 1.43928430 3.32808673
H 13.43444813 4.83820250 1.85970225
H 13.43857821 4.83493545 0.31294580
H 13.81110231 5.11195921 4.11680524
H 14.25551672 6.37660922 3.35026022
H 13.40915504 4.84719824 6.36275691
H 12.06977979 4.84002744 5.58874758
H 9.93946452 1.18618847 4.79585027
H 11.27621818 1.19016776 5.57261074
H 9.91603605 5.08653692 4.79676607
H 9.91468371 5.08055853 6.34348959
H 13.41731915 1.46352008 0.30941457
H 12.97168544 2.73054343 1.07390769
H 13.41778290 1.46773619 6.37545039
H 12.97865119 2.73290499 5.60410401
H 9.55868702 4.79827515 8.60811226
H 9.09681188 3.53975850 7.83931653
H 9.09554072 3.54001334 3.30714263
H 9.54017640 4.80580301 2.53803838
H 10.39148540 6.37977508 1.08850439
H 11.29414677 5.12585853 1.08409958
H 11.28287103 1.15998966 1.10083368
H 10.40158496 14.49191966 1.10246882
H 13.79267640 1.19004279 4.11123714
H 13.78585773 1.18767734 2.56430246
H 14.27824968 14.49601015 7.82396650
H 15.16977507 1.15497880 7.82950378
H 15.16656240 5.08572340 7.83461086
H 13.82918020 5.07821750 8.60734931
H 9.51081181 1.43393817 7.03659218
H 8.17273178 1.43340746 7.81280878
H 1.31533092 2.72951875 12.27604834
H 1.75270630 1.45869091 11.51409043
H 5.20684182 3.54548991 10.04499887
H 5.66954226 4.80092846 9.26960517
H 6.04923183 5.10819531 11.50917335
H 6.49229742 6.36927146 12.28469767
H 5.21790920 3.53199361 14.52708598
H 5.66631842 4.79336060 13.75119971
H 2.13309317 1.18119119 15.31576956
H 2.13549090 1.18466356 13.76896724
H 3.52281134 5.07800895 14.56289992
H 2.18486897 5.06992149 15.33556332
H 5.65987992 1.43793663 10.84742609
H 5.65456062 1.42501228 9.30152379
H 4.28896990 1.43376532 14.56525510
H 5.62506854 1.42369491 15.34665068
H 1.78054778 4.79503788 17.57827568
H 1.33502265 3.52823790 16.81192896
H 1.78782596 4.84251678 11.52611576
H 1.78817384 4.83099481 13.07248732
H 2.63382669 6.37951978 10.06058491
H 3.53237002 5.12079070 10.05749301
H 2.62512599 14.49112968 10.06325072
H 3.51587451 1.15091213 10.07005334
H 7.39706885 1.18821243 12.33514598
H 6.05485059 1.17865721 13.10385845
H 6.50863858 14.48906222 16.80050009
H 7.39488686 1.15125895 16.80302908
H 7.39579278 5.08340462 16.77060583
H 6.05778140 5.07844669 15.99703089
H 0.41222403 1.42284448 16.81807290
H 1.75712578 1.42190156 17.58247187
H 8.17959393 8.76248399 12.30790023
H 9.07824519 10.01978567 12.30772330
H 12.06958096 12.14423180 10.04477926
H 13.40689881 12.13479784 9.26759595
H 14.25144267 13.67136030 12.29570801
H 13.81302433 12.41420089 11.51220358
H 13.44020690 12.09539659 13.76074061
H 12.99644660 10.83213407 14.53367963
H 9.91220842 8.48663469 13.78512194
H 9.91488525 8.48807063 15.33113996
H 9.95964379 12.37719437 13.76071514
H 11.29823247 12.37951527 14.53400194
H 12.06249729 8.76742526 10.06177498
H 12.95226947 10.03075501 10.06049612
H 12.07148776 8.73053945 14.53503218
H 13.41121924 8.72133070 13.76095175
H 9.55299707 12.10249130 16.00150422
H 9.09925422 10.84392701 16.77681613
H 8.19742052 12.13336147 12.29296276
H 9.53147373 12.13048018 11.51298775
H 10.36641154 13.67665363 10.05103246
H 9.93056039 12.41257191 9.27283796
H 10.38296449 7.18864268 10.07718145
H 9.93185642 8.44494470 10.85708144
H 13.83161308 8.48405404 11.51284909
H 15.16787357 8.48215800 12.29106240
H 13.80840197 8.44873144 16.00715676
H 14.25870775 7.19012720 16.77962866
H 13.80212804 12.37736553 17.56690158
H 13.80946421 12.37350800 16.02026935
H 9.51011878 8.74259714 17.59165826
H 8.17246354 8.73631228 16.81434508
H 1.33731484 10.02419479 12.33005686
H 1.77279930 8.75434225 13.09635281
H 5.68055656 12.13405111 10.83812731
H 5.68118262 12.12801067 9.29130178
H 6.49330492 13.67458715 12.32673294
H 6.05306197 12.40813350 13.09279358
H 4.31038970 12.14156844 14.56125861
H 5.64755914 12.12916142 15.33776183
H 2.60693951 7.18919806 14.56670062
H 2.15322941 8.44676491 15.34233445
H 2.16544848 12.41193391 15.33293402
H 2.60469982 13.67449522 14.55655559
H 5.18502731 10.02826574 10.06844421
H 4.28266481 8.77194465 10.06908069
H 4.28797237 8.76337741 14.54930814
H 5.18473290 10.02306772 14.54390348
H 0.42712208 12.13183572 16.80190263
H 1.76567476 12.13070851 17.57409636
H 1.76518241 12.13546597 13.09868389
H 0.42802649 12.13041019 12.32182951
H 2.18767920 12.37885020 10.85409455
H 3.52613781 12.38132970 10.07855103
H 2.14256068 8.48269815 9.29126713
H 2.14422987 8.48593924 10.83948868
H 6.03277406 8.48460190 11.53180775
H 6.03156204 8.47886674 13.07677892
H 6.03619208 8.45816314 16.00538663
H 6.47749956 7.19006768 16.76963314
H 7.40999641 12.38302400 16.81192030
H 6.07265651 12.37600646 17.58915637
H 1.30227225 10.02289014 16.78693362
H 0.40571254 8.76372216 16.79687771
