384

O 9.08543024 1.76599922 12.31113483
O 12.98803815 4.50894629 10.05718093
O 14.27457960 5.41923276 12.30078940
O 12.97289839 4.50670261 14.54378917
O 10.38733812 0.84878733 14.55467835
O 10.37948063 5.41251659 14.54020505
O 12.97293246 1.76699677 10.06005539
O 12.96975686 1.76413801 14.54235361
O 9.09633832 4.50258798 16.79004626
O 9.09028398 4.50751254 12.29886401
O 10.39088792 5.41192694 10.05721575
O 10.38971171 0.85621671 10.07006587
O 14.26759431 0.85578783 12.29952771
O 14.25867756 0.86153810 16.79262420
O 14.27061077 5.40619294 16.78234541
O 9.08068611 1.76014959 16.79914631
O 9.08926363 9.05817128 3.34635737
O 12.96497011 11.80980658 1.09075743
O 14.25970280 12.71636958 3.33310481
O 12.97420126 11.80595485 5.57856840
O 10.37847592 8.15858706 5.59751940
O 10.37828691 12.71580091 5.57830013
O 12.96476697 9.06798316 1.07744937
O 12.96521131 9.06451683 5.57697786
O 9.08732046 11.80679725 7.82945350
O 9.08876237 11.79705328 3.33718664
O 10.37617727 12.71111591 1.09485350
O 10.37981541 8.15697027 1.09609920
O 14.25187969 8.15475336 3.32329516
O 14.25453518 8.15618595 7.81738087
O 14.27191338 12.71233263 7.82272655
O 9.08253647 9.06175023 7.84630493
O 1.30821904 9.06966076 3.33352321
O 5.19535061 11.79925192 1.09716951
O 6.49474071 12.70931742 3.33936773
O 5.20242778 11.80893849 5.58353810
O 2.60729805 8.15443948 5.57109428
O 2.60842366 12.71379414 5.56728874
O 5.20651977 9.05987981 1.10662660
O 5.19756725 9.06543764 5.58718528
O 1.32728882 11.80000695 7.82224287
O 1.31196164 11.81027048 3.33112593
O 2.61609954 12.70890566 1.08904555
O 2.61310134 8.15688691 1.10354565
O 6.49928421 8.15134469 3.34426794
O 6.48630879 8.16234855 7.83557137
O 6.50063321 12.70962081 7.82715327
O 1.31470462 9.05835402 7.82021770
O 1.30133510 1.75796248 3.33545882
O 5.20035023 4.50509937 1.09766078
O 6.50271157 5.41034055 3.34182819
O 5.20607116 4.49321802 5.58000264
O 2.60126713 0.84940692 5.58023859
O 2.61403609 5.41166807 5.56222067
O 5.19832114 1.76182768 1.10209799
O 5.19099635 1.75340666 5.59722797
O 1.32329055 4.50216877 7.80453034
O 1.31730401 4.50204669 3.31597251
O 2.60828038 5.41841003 1.07129520
O 2.60580529 0.84915546 1.10527666
O 6.48114650 0.85135338 3.34364344
O 6.49397560 0.84376198 7.83270442
O 6.50338909 5.41549355 7.82734068
O 1.30227962 1.76561110 7.81457597
O 9.07470779 1.76607351 3.33838142
O 12.97134118 4.50318696 1.08150678
O 14.26071659 5.41441204 3.32548374
O 12.96567323 4.50937151 5.57130717
O 10.35746982 0.85753130 5.59163837
O 10.38192874 5.41867748 5.58154021
O 12.95358347 1.76299449 1.09411305
O 12.94291970 1.76365268 5.56857484
O 9.08465222 4.50327255 7.81596076
O 9.09603775 4.50597768 3.33423426
O 10.38774972 5.41414466 1.08824088
O 10.36649604 0.85017798 1.10028232
O 14.24550014 0.85379508 3.33013227
O 14.24493304 0.85699416 7.80372564
O 14.26920478 5.41253153 7.80546132
O 9.07817250 1.76154777 7.83466986
O 1.32589979 1.75943670 12.30278494
O 5.21686706 4.49447052 10.07129487
O 6.50621294 5.41617668 12.31161628
O 5.21590934 4.50010598 14.55400923
O 2.61776231 0.85185624 14.55306542
O 2.62471374 5.41040504 14.53374280
O 5.18989012 1.75519317 10.06324527
O 5.20577265 1.75964685 14.55313700
O 1.33370160 4.50947207 16.77206618
O 1.33300192 4.50172060 12.29479040
O 2.62887782 5.40615783 10.04682600
O 2.60321883 0.85399259 10.05060012
O 6.48772430 0.85484386 12.30819816
O 6.48677452 0.85495895 16.80241715
O 6.50534623 5.40724293 16.79999962
O 1.31891015 1.76556737 16.79281881
O 9.09004961 9.06227097 12.31284819
O 12.97987482 11.80573528 10.07385504
O 14.27057499 12.72122206 12.30897149
O 12.97879483 11.80787625 14.55379245
O 10.38679806 8.15686407 14.55815674
O 10.39060491 12.70804559 14.55823771
O 12.97512605 9.06482276 10.06704281
O 12.97893914 9.06505819 14.56069605
O 9.08361516 11.80484910 16.79709715
O 9.10187734 11.80132339 12.31267632
O 10.38866732 12.71809786 10.06356765
O 10.39245200 8.15246294 10.07507471
O 14.27088706 8.15728574 12.31255843
O 14.27709986 8.14324286 16.79483172
O 14.26852135 12.71991544 16.79874265
O 9.08318798 9.06554892 16.80096716
O 1.31783530 9.06892848 12.31006252
O 5.21444145 11.80924959 10.07956640
O 6.51774976 12.71720568 12.31904489
O 5.21776870 11.80146561 14.56196660
O 2.61645101 8.15592569 14.54691617
O 2.62930791 12.70855767 14.55341950
O 5.19315307 9.06489133 10.07809698
O 5.20593148 9.05452579 14.55869881
O 1.32360113 11.79825771 16.78209408
O 1.32801683 11.80884509 12.30501370
O 2.62766901 12.71411160 10.06440459
O 2.60320542 8.15057445 10.06494909
O 6.49474736 8.15321734 12.31083103
O 6.49188867 8.15081380 16.80281966
O 6.49640385 12.71224122 16.80875224
O 1.32121098 9.05646824 16.79521661
H 8.16942675 1.46967068 12.30662826
H 9.06494977 2.72915477 12.31208656
H 13.41877706 4.84611397 10.85007262
H 12.08163905 4.83382619 10.07417128
H 13.81393256 5.11941605 13.09144938
H 14.26642997 6.38235395 12.32154566
H 12.05764322 4.80631091 14.54081029
H 12.94922218 3.54377681 14.53551116
H 10.37256795 14.48792269 14.53450799
H 9.92004681 1.15068010 13.76865216
H 9.93062366 5.11074889 15.33717916
H 10.37390168 6.37525910 14.56717666
H 13.43530919 1.46703529 10.85001177
H 12.98830547 2.72999386 10.07789747
H 13.40609472 1.43331038 13.75008814
H 12.06719225 1.42768657 14.52401919
H 9.10609702 3.53977113 16.81260535
H 9.55740491 4.80326625 17.58044053
H 8.18773745 4.84329775 12.32323426
H 9.52776916 4.83801599 13.09115094
H 9.91772370 5.08399066 10.82937839
H 9.92509075 5.07859530 9.28313576
H 11.29279140 1.19065973 10.09154182
H 9.94988695 1.18813518 10.85979740
H 14.28725133 14.49464023 12.30039751
H 15.18377424 1.15197480 12.30467738
H 13.82433257 1.18961969 15.99797597
H 15.16199151 1.19429543 16.77347722
H 13.79822875 5.07941644 16.00882079
H 13.80405399 5.07005573 17.55476240
H 9.54308534 1.42843050 17.57624911
H 9.55298852 1.42600688 16.02964786
H 9.09739169 10.02120772 3.36051099
H 9.54386823 8.76472811 4.14282586
H 13.43598047 12.13272339 1.86630744
H 13.43441453 12.14329286 0.31866606
H 15.16469894 12.38705031 3.35132034
H 13.82710860 12.38422361 4.12711138
H 13.43082697 12.10261753 6.37286887
H 12.97986429 10.84304434 5.59856019
H 10.36786793 7.19562770 5.61231916
H 9.92001761 8.45469709 6.39076642
H 11.28287197 12.38610560 5.56275210
H 9.94772011 12.38676798 4.78225493
H 12.04749115 8.77437224 1.08420540
H 12.94708374 10.03108156 1.07928713
H 13.39206908 8.74123766 4.77680996
H 12.05931877 8.73732995 5.56505713
H 9.52024049 12.12881115 7.03182251
H 8.18253186 12.13673636 7.80706132
H 8.18422664 12.12643052 3.31768835
H 9.52269296 12.12671094 2.54283176
H 11.29272546 12.41444944 1.09564105
H 10.39782938 13.67407157 1.10063941
H 9.90228938 8.48496760 0.32650843
H 9.91286506 8.47982217 1.87409489
H 15.15553254 8.48734942 3.31058799
H 13.82074677 8.48669760 2.52869585
H 14.25019280 7.19349295 7.79414244
H 13.80110302 8.45418088 7.02150380
H 13.83790645 12.38199865 8.61638251
H 15.17832774 12.38729270 7.84618193
H 9.06533722 10.02479697 7.84080022
H 8.16543467 8.76824263 7.83985889
H 1.32052919 10.03275031 3.35305030
H 1.76503761 8.77119124 4.12726319
H 5.65709486 12.09923085 0.30678469
H 5.21650828 10.83609053 1.08391394
H 6.03841674 12.40765341 2.54658846
H 6.48005094 13.67226406 3.31901241
H 5.63688907 12.13674617 4.78866928
H 4.29668919 12.13541319 5.55929065
H 3.51143421 8.48506401 5.59388844
H 2.17269601 8.47319628 6.36923329
H 2.59264976 13.67649713 5.59699521
H 2.15882129 12.40533563 6.36114309
H 5.68082272 8.72899810 1.87703530
H 5.66747567 8.72394813 0.33052030
H 5.20917781 10.02831837 5.56493552
H 5.65581137 8.76465214 4.79535026
H 1.79238883 12.09609486 8.61167371
H 1.33283178 10.83686370 7.84082201
H 1.78378205 12.13249632 2.55575858
H 1.78014802 12.14640563 4.10295477
H 2.17945036 12.37996711 0.29641518
H 3.51841127 12.37135848 1.06857035
H 3.51939337 8.48203628 1.12604560
H 2.17692203 8.49372011 1.89354586
H 6.51590247 7.18825065 3.34873410
H 7.41612391 8.44586196 3.35107616
H 6.03448529 8.45857455 7.03821432
H 6.48179235 7.19945480 7.81499248
H 6.48531233 13.67283427 7.81327599
H 6.03628008 12.41362202 7.03685942
H 1.74471624 8.72144303 8.61333285
H 0.40773953 8.73464013 7.83540887
H 1.77189417 1.43469054 4.11084948
H 1.77426356 1.42501017 2.56494330
H 5.64256999 4.83096952 0.30654380
H 4.29791161 4.83975629 1.06943880
H 6.02912548 5.08517029 2.56893142
H 6.03679820 5.07380642 4.11475340
H 4.29187905 4.79539255 5.57361538
H 5.18063331 3.53043101 5.58927168
H 3.50795984 1.17257413 5.60979553
H 2.16026374 1.18431632 6.36832368
H 2.15486376 5.11360022 4.77010094
H 2.60454639 6.37451911 5.54379709
H 5.65171802 1.46605818 0.30514267
H 5.20268604 2.72494025 1.08045342
H 5.65621160 1.42561922 4.82039059
H 5.66574789 1.42481019 6.36800248
H 1.80116684 4.82749165 8.57450390
H 1.78569833 4.83355007 7.02714384
H 0.40150844 4.79935907 3.31940850
H 1.29590693 3.53918635 3.32092505
H 2.15469002 5.10960082 1.86276504
H 2.60197337 6.38116197 1.10647089
H 2.62999215 14.48825580 1.09440545
H 3.52083328 1.14905987 1.09859518
H 7.38439196 1.18452468 3.32383102
H 6.04608766 1.18732595 2.55228098
H 6.05071544 1.17610040 8.62072554
H 7.39750055 1.17636137 7.85826514
H 6.06237520 5.07999889 7.03990507
H 7.40844441 5.08628352 7.79835075
H 1.28630188 2.72870095 7.80616110
H 0.38586657 1.46990070 7.80791359
H 9.52476547 1.46645460 4.13524734
H 9.08869312 2.72895182 3.35617971
H 13.42980462 4.80385183 1.87331758
H 12.97866267 3.54024472 1.10558714
H 13.80435861 5.12121055 4.12095562
H 14.24997852 6.37752517 3.33781663
H 13.42887274 4.80336283 6.36315667
H 12.97286944 3.54643251 5.58824831
H 10.38386748 14.49675678 5.58078455
H 11.27274402 1.15792262 5.57958568
H 9.94951538 5.09787555 4.78309033
H 11.28759947 5.09116036 5.56001594
H 13.42230809 1.43939827 0.31753862
H 13.42462248 1.42521992 1.86365452
H 13.41078984 1.43038979 6.34199867
H 13.41535677 1.43598714 4.79590392
H 9.09773761 3.54014984 7.80101522
H 9.54806939 4.79981903 7.02519028
H 8.18986134 4.83150777 3.31553116
H 9.52939313 4.83565861 2.53987312
H 10.40927913 6.37693065 1.08683828
H 11.30327200 5.11475018 1.08869882
H 11.26972956 1.18390853 1.11898812
H 9.93124466 1.18069994 1.89359964
H 14.26785112 14.49257672 3.33449327
H 15.16173876 1.15103160 3.33393244
H 13.79542459 1.15684057 8.60108015
H 14.24421086 14.49638904 7.83033084
H 13.83859740 5.08748819 8.60330513
H 15.17602705 5.08902839 7.82475522
H 9.54078086 1.42428595 7.05958503
H 9.55528192 1.43657843 8.60549554
H 1.78043289 1.45918494 13.09678089
H 1.33920267 2.72235529 12.32234464
H 5.68674363 4.82312929 9.29743868
H 5.68283918 4.82873791 10.84486765
H 6.04674629 5.11391204 13.10219009
H 6.48944263 6.37917789 12.32938734
H 4.30149167 4.80226721 14.55003580
H 5.18898227 3.53714848 14.54845672
H 2.60547634 14.49109939 14.57333523
H 2.15957835 1.15190465 15.34526664
H 2.16607546 5.11370577 15.32763060
H 2.61370007 6.37329091 14.55355523
H 4.27116075 1.46575945 10.05511013
H 5.17810652 2.71823319 10.06795157
H 4.30184901 1.42692604 14.54035034
H 5.63406372 1.42985817 13.75573670
H 1.76363314 4.84622415 17.56600718
H 0.42567833 4.82985591 16.79193838
H 1.76762440 4.83697424 13.08657140
H 0.42888475 4.83280234 12.31532167
H 2.19024163 5.07672494 10.83838036
H 3.53308819 5.07576753 10.07297347
H 2.12528744 1.18141773 9.28116933
H 2.13874248 1.18068345 10.82858111
H 6.49355809 14.49382874 12.29429564
H 6.02600622 1.14314846 11.51387182
H 6.05464029 1.18243189 16.00619604
H 7.39304191 1.17978305 16.78051924
H 6.07238453 5.07254088 16.00748180
H 7.41093590 5.07958858 16.78190992
H 1.77050829 1.46612022 17.58859133
H 1.33631641 2.72849294 16.80914159
H 9.55928203 8.73787183 13.08877649
H 9.55874553 8.72372969 11.54267936
H 12.95399963 10.84277078 10.07040366
H 12.06549004 12.10803090 10.06289617
H 13.79736771 12.38621909 11.53957976
H 13.80476455 12.39223318 13.08518460
H 12.96266781 10.84492195 14.55874384
H 12.06096472 12.10012516 14.55893919
H 9.94709686 8.49147220 15.34688558
H 11.29239597 8.48308167 14.58312488
H 9.91379587 12.38561957 15.33042259
H 9.92698053 12.37410441 13.78295855
H 12.07197736 8.72987400 10.05140445
H 13.40409581 8.73620757 9.26960080
H 13.44514433 8.74113430 13.78283202
H 13.45050057 8.72813262 15.32975166
H 9.52376365 12.13317705 17.58860933
H 8.18143186 12.14095826 16.82052131
H 9.11534877 10.83847698 12.28765600
H 9.55643422 12.10659415 11.52026073
H 9.92680227 12.42752946 9.26992810
H 10.38153541 13.68124870 10.05170917
H 10.37745376 7.18969536 10.04814730
H 9.92368468 8.45860296 9.29104135
H 15.17416331 8.49140795 12.28992168
H 13.83357660 8.48532750 11.51954217
H 13.80624622 8.44682204 17.57827560
H 14.25698617 7.18012540 16.81152036
H 13.81173712 12.41856498 16.00598971
H 14.25900362 13.68270940 16.77341848
H 8.16876322 8.76342420 16.79613917
H 9.05769274 10.02862812 16.80303379
H 1.77472065 8.76150689 11.51988309
H 1.33346040 10.03179815 12.28414357
H 5.69135535 12.13051021 10.85217672
H 5.68215665 12.13699441 9.30415245
H 7.42162193 12.38508435 12.33826726
H 6.08064593 12.38638664 13.11067750
H 5.19151490 10.83873761 14.55960687
H 4.30230619 12.10158255 14.55578681
H 2.14892105 8.48269170 15.32288958
H 2.14672967 8.49132446 13.77585141
H 2.15610211 12.37315703 15.32276375
H 2.15871868 12.38720195 13.77721922
H 5.20935697 10.02779300 10.06136134
H 5.64724287 8.76587959 9.28294158
H 5.63959134 8.73235918 13.76139232
H 4.29940855 8.72964661 14.53419797
H 1.29471239 10.83551384 16.79273475
H 0.41052458 12.10443422 16.78843036
H 1.76666031 12.14314753 11.51542259
H 0.42296654 12.13718068 12.28282772
H 2.64110961 13.67708019 10.05571332
H 3.54586987 12.42328296 10.07280921
H 2.63456122 7.18789916 10.06435203
H 3.51651166 8.45636853 10.06706921
H 6.06125844 8.48700969 11.51798551
H 7.39996519 8.48114328 12.29376552
H 6.48893046 7.18780274 16.78116981
H 6.03465955 8.44572561 16.00780145
H 6.48233655 13.67502037 16.78610137
H 6.04376171 12.41006056 16.01378657
H 1.76047131 8.73387632 17.58923847
H 0.42021320 8.71591016 16.81908720
