384

O 9.07188753 1.76458471 12.31632858
O 12.98028308 4.51312426 10.07014687
O 14.27615477 5.41177311 12.31628653
O 12.97902093 4.49724912 14.55286294
O 10.36512535 0.85174974 14.55039325
O 10.39081853 5.41228982 14.55225045
O 12.96047062 1.76901356 10.07326137
O 12.94909707 1.75408162 14.56510618
O 9.10242977 4.50112405 16.78991540
O 9.09032521 4.50494080 12.30679149
O 10.38939840 5.41947781 10.07318618
O 10.36604915 0.85289434 10.08070697
O 14.24728113 0.85352379 12.31850731
O 14.24283158 0.84986316 16.80896370
O 14.27672584 5.41333305 16.79771288
O 9.08213123 1.76146077 16.80495407
O 9.08374695 9.06771264 3.34276089
O 12.97214225 11.80354735 1.09169142
O 14.27282001 12.71688488 3.33698019
O 12.97173535 11.80561014 5.57317773
O 10.38012938 8.15941903 5.58561159
O 10.37862576 12.71198329 5.57649890
O 12.97696876 9.06546869 1.09145855
O 12.97414682 9.05952453 5.57274507
O 9.10074361 11.80334804 7.81689374
O 9.09559440 11.80906602 3.33281004
O 10.38091846 12.71043404 1.09257697
O 10.38126022 8.15035597 1.09783722
O 14.26110700 8.15848129 3.33067781
O 14.26709956 8.15889857 7.81691981
O 14.26753162 12.71977774 7.81513816
O 9.08478859 9.06812666 7.82678593
O 1.31336761 9.06960561 3.33004630
O 5.20993784 11.79450569 1.07354016
O 6.49817643 12.70475938 3.32112044
O 5.20638848 11.80111590 5.56725626
O 2.59896241 8.15988785 5.58088729
O 2.61721759 12.71705533 5.57474732
O 5.21062613 9.05040943 1.07553030
O 5.19433408 9.05911548 5.56672845
O 1.32652743 11.81093213 7.82249013
O 1.33264390 11.81024997 3.32396922
O 2.62411784 12.71500724 1.08067719
O 2.61540463 8.15410311 1.09188905
O 6.49331702 8.15172162 3.32732364
O 6.49246267 8.15368624 7.80443494
O 6.50773357 12.71270079 7.80861886
O 1.31364904 9.06796295 7.83532576
O 1.30718658 1.75777399 3.34433321
O 5.20854365 4.50257529 1.09097882
O 6.49882343 5.41024224 3.33884629
O 5.19952707 4.50982142 5.57592989
O 2.60100672 0.85854322 5.58673417
O 2.60996433 5.42072263 5.58055878
O 5.19703167 1.76431295 1.08880272
O 5.18488188 1.76703926 5.57679681
O 1.32351098 4.50759822 7.82394108
O 1.33062694 4.49885554 3.34373411
O 2.62214065 5.40935437 1.09711015
O 2.60597123 0.85105073 1.09998430
O 6.47427778 0.84698059 3.33730425
O 6.48098501 0.85599809 7.82136628
O 6.50763029 5.41279263 7.81656279
O 1.31104452 1.76478934 7.83754071
O 9.06679197 1.75335439 3.34536398
O 12.97817948 4.50886753 1.10054089
O 14.27653077 5.41665326 3.34095323
O 12.97423042 4.51162916 5.58000210
O 10.37571604 0.85398768 5.58944918
O 10.38284623 5.41470320 5.57959675
O 12.95112563 1.76945026 1.10505982
O 12.95869234 1.77566658 5.59475946
O 9.09725316 4.50431860 7.82946252
O 9.08707201 4.50315814 3.33741769
O 10.38535198 5.40198087 1.09829940
O 10.36591344 0.84783656 1.10295759
O 14.25012036 0.86042844 3.35308899
O 14.25502496 0.85691610 7.82584178
O 14.26998036 5.42317271 7.82219244
O 9.07519597 1.76651833 7.83255617
O 1.30087584 1.76853679 12.32649095
O 5.21733723 4.49990624 10.05626820
O 6.50096190 5.41234265 12.31144166
O 5.20276194 4.49410024 14.55700506
O 2.60471950 0.84986603 14.56148582
O 2.61242475 5.40733317 14.56384463
O 5.18456527 1.75997973 10.06662128
O 5.19079432 1.75233145 14.54636580
O 1.32752908 4.50322455 16.80469470
O 1.33117450 4.50897861 12.31914358
O 2.62377002 5.41028411 10.06909677
O 2.59431533 0.85572941 10.08503706
O 6.48800850 0.85042725 12.30529451
O 6.49019143 0.84988622 16.79340058
O 6.50929679 5.40519197 16.78671489
O 1.30193835 1.75960852 16.80659060
O 9.08866586 9.06327762 12.31271593
O 12.97856373 11.79996546 10.05594972
O 14.26979504 12.70999301 12.30289902
O 12.97562449 11.79916710 14.54610804
O 10.38541928 8.15238605 14.55046839
O 10.38686967 12.71108264 14.54541320
O 12.97794452 9.06248478 10.06306605
O 12.97320650 9.05745482 14.54799574
O 9.09306296 11.80072145 16.78886979
O 9.09083449 11.80479301 12.30154839
O 10.39422707 12.71327550 10.06167796
O 10.39150875 8.16130191 10.07159937
O 14.26545476 8.15351031 12.30537317
O 14.26912955 8.15110980 16.79315318
O 14.26293720 12.71278712 16.79251563
O 9.09234316 9.05788709 16.78540192
O 1.32553992 9.06058228 12.30878406
O 5.20997552 11.80856148 10.04711259
O 6.50098794 12.70900279 12.29425831
O 5.21418271 11.80546712 14.54157684
O 2.61944149 8.15529223 14.55559813
O 2.61814554 12.70932617 14.55321471
O 5.19803316 9.06871306 10.04797195
O 5.20967960 9.06543944 14.53406207
O 1.31873632 11.80447602 16.79080202
O 1.32889084 11.80229512 12.30597089
O 2.62249845 12.71613238 10.06157031
O 2.61593324 8.15364728 10.07278693
O 6.49910241 8.16012968 12.29241997
O 6.50313135 8.15107748 16.77852636
O 6.50318780 12.71200637 16.77904380
O 1.32249493 9.06625092 16.79395017
H 9.54404988 1.43455093 11.54415200
H 9.54198344 1.43446372 13.08986253
H 12.07600686 4.84418000 10.05086590
H 13.41530672 4.84828421 9.27894022
H 13.81077424 5.07251203 13.08841525
H 13.80494205 5.08503917 11.54243552
H 12.06452132 4.79898033 14.55304352
H 12.95325724 3.53460254 14.56285383
H 11.28153712 1.14884578 14.56024130
H 10.38940456 14.49078670 14.55409315
H 9.93246285 5.11517494 13.75914285
H 10.38365248 6.37551418 14.53227126
H 13.41346001 1.46913762 9.27813601
H 12.97055008 2.73192882 10.05081704
H 13.41982728 1.42783937 13.79079752
H 13.42001309 1.42793206 15.33920509
H 9.53540483 4.83773214 15.99787188
H 8.19688509 4.82880290 16.77100132
H 8.17521029 4.80505847 12.31222596
H 9.06642744 3.54202584 12.31326546
H 9.92087226 5.08334144 10.84485994
H 9.92180458 5.08810599 9.29922549
H 11.27849051 1.16031745 10.06993459
H 10.39868819 14.49224029 10.07129492
H 15.14858355 1.19273454 12.30226004
H 13.81229164 1.18579792 11.52590874
H 15.14640470 1.18223048 16.82988379
H 13.80611589 1.18013646 17.60132732
H 13.81566460 5.11068721 16.00855545
H 14.26292657 6.37627554 16.77670050
H 9.52870298 1.45538969 16.00847239
H 9.09532917 2.72431696 16.77601695
H 9.10109221 10.03044630 3.31500869
H 9.53629756 8.76027140 2.55012593
H 13.42843527 12.10016669 0.29714030
H 12.98352212 10.84060666 1.07474637
H 13.80370548 12.38906822 2.56251698
H 13.79995031 12.38717412 4.10867771
H 12.95077831 10.84278712 5.57465340
H 12.05591172 12.10385868 5.57393114
H 9.91453625 8.49390540 4.81162159
H 9.90921004 8.48870022 6.35853247
H 10.37221530 13.67499677 5.56437621
H 9.92370008 12.42043264 4.77897096
H 13.40700879 8.73586199 1.88812421
H 12.07293363 8.73445600 1.10694915
H 13.41121733 8.73790379 6.36848209
H 12.06921200 8.73100430 5.59804812
H 9.53128713 12.13095220 7.01953635
H 8.19708579 12.13581823 7.80012108
H 8.18901634 12.13266863 3.30720638
H 9.53203890 12.13730013 2.53898277
H 10.40495057 13.67338373 1.09298522
H 11.29581697 12.40925933 1.08851352
H 9.92804556 8.44731182 0.30177133
H 10.37316311 7.18751532 1.07737378
H 13.80582031 8.45601924 4.12596740
H 14.25677596 7.19538298 3.35280212
H 15.17091532 8.49181795 7.83822738
H 13.83220604 8.48670933 8.61136714
H 13.79424067 12.38906284 7.04441979
H 13.80544665 12.38402921 8.59075670
H 9.09946303 10.03134790 7.84239195
H 9.54360859 8.77065369 8.61919958
H 1.74598329 8.74182514 4.12568376
H 0.40943240 8.73721632 3.35059361
H 5.22381894 10.83151193 1.08742927
H 5.66678323 12.09025584 1.86823457
H 6.04522911 12.40309068 4.11569617
H 6.47661655 13.66736514 3.34035310
H 5.21400791 10.83819772 5.58815296
H 5.66272469 12.09978937 6.36103532
H 2.14563019 8.45775618 6.37639349
H 2.58936573 7.19680280 5.59802636
H 2.18612392 12.39032014 4.77796032
H 3.52071912 12.38411090 5.55814257
H 4.30316913 8.72882127 1.10046368
H 5.64465221 8.72206499 1.87016542
H 5.63026377 8.72171415 6.35680276
H 4.28751818 8.73549614 5.59018509
H 1.76076934 12.13300387 7.02556709
H 0.42028599 12.13583770 7.79835192
H 1.30165557 10.84742145 3.32699261
H 0.41863522 12.11389012 3.32951525
H 3.52732850 12.38121139 1.09598487
H 2.19113176 12.38389273 1.87486161
H 2.14254224 8.48506097 1.86260772
H 2.15265759 8.48899291 0.31628980
H 7.39422645 8.49112334 3.34835312
H 6.05364601 8.47755123 4.11991100
H 6.51887008 7.19068327 7.81171462
H 7.40695208 8.45525830 7.81360029
H 6.04821915 12.41539308 8.60134035
H 6.48693085 13.67556136 7.82620870
H 1.77649765 8.76934676 8.62515515
H 1.33136792 10.03078577 7.84771074
H 1.77589600 1.42304727 2.57239030
H 1.77899802 1.43331998 4.11906844
H 5.64552908 4.83020296 1.88411599
H 4.30644178 4.83987966 1.11060722
H 7.41335512 5.10774145 3.33518430
H 6.52474575 6.37298400 3.33436427
H 5.67177433 4.84195442 4.80468951
H 5.67176554 4.83426861 6.35003780
H 2.62754953 14.49788163 5.58727375
H 3.51587866 1.16042505 5.58324379
H 3.51649450 5.09570494 5.56379546
H 2.18054748 5.08484180 4.78623456
H 5.17280602 2.72739771 1.09367937
H 4.28206284 1.46347377 1.09220878
H 5.20019463 2.73002594 5.55593224
H 5.64209846 1.46675097 4.78400378
H 1.75569231 4.83925852 7.02949839
H 0.41965267 4.83996777 7.80676676
H 1.78388132 4.79925468 2.54880612
H 1.33669422 3.53585358 3.32147256
H 2.60500960 6.37215388 1.07668651
H 2.16355490 5.10921938 0.30460236
H 2.14452985 1.14880116 0.30883508
H 2.60513023 14.49023681 1.07548895
H 6.04272514 1.17754418 2.54217981
H 7.38065103 1.17167379 3.31960967
H 6.00538395 1.18314964 8.59219657
H 6.01603665 1.18735802 7.04591497
H 7.41160653 5.08084894 7.83613671
H 6.07442919 5.08146647 8.61042959
H 1.76765842 1.46281780 7.04508767
H 1.32024075 2.72752541 7.81109963
H 9.53663191 1.42795295 4.12031394
H 9.53639341 1.41848366 2.57403243
H 13.44597878 4.84028389 1.87447772
H 13.44961171 4.83711431 0.32776373
H 15.18051055 5.08527315 3.36271636
H 13.83726240 5.08272038 4.13042954
H 12.05929112 4.81217132 5.57448850
H 12.94904162 3.54864328 5.58761685
H 9.93712619 1.17939502 6.38236387
H 11.27881413 1.18787791 5.61264184
H 9.92290693 5.11771471 4.78728896
H 10.36692588 6.37748168 5.56520279
H 13.40651110 1.46906712 1.89865359
H 12.96849371 2.73247188 1.12432801
H 13.42466824 1.44312482 4.82005936
H 13.43091807 1.44243126 6.36550065
H 9.55191439 4.80387882 7.03530529
H 9.10453025 3.54144792 7.80887111
H 9.55038720 4.79195255 2.54363735
H 9.09375243 3.54023422 3.32633511
H 11.29322367 5.08107263 1.07875845
H 9.95507152 5.07219370 0.30225806
H 11.26625664 1.18934782 1.08543602
H 9.93047221 1.17630525 0.30880939
H 15.16668364 1.15666505 3.34819329
H 14.27245786 14.49969595 3.34494235
H 14.27423495 14.49587031 7.82792251
H 15.17121475 1.15321159 7.83092951
H 14.26215227 6.38632683 7.80132408
H 13.81027216 5.12324596 7.03074491
H 9.50411303 1.43306768 8.62746525
H 8.16845424 1.44271148 7.84668805
H 1.32380015 2.73110135 12.34676998
H 1.76097961 1.46276536 13.11532968
H 5.21822844 3.53697942 10.08316155
H 5.66448298 4.80095093 10.85417283
H 6.03979064 5.11876096 13.10400451
H 6.48943921 6.37530072 12.32245030
H 5.18188359 3.53119613 14.54849890
H 4.28706343 4.79172851 14.55723036
H 3.52268552 1.14155228 14.55750513
H 2.62224774 14.48890438 14.55840026
H 2.61212926 6.37026401 14.54342267
H 2.16056811 5.11508614 13.76462557
H 5.62600491 1.42385065 10.85375870
H 4.27764751 1.43710158 10.09643898
H 5.66410938 1.42853803 15.31998341
H 5.66193195 1.42429607 13.77296941
H 0.42196044 4.83113456 16.78188388
H 1.76051411 4.83367662 16.00983437
H 0.42551178 4.83611845 12.29665912
H 1.76628357 4.83135155 11.52292953
H 3.52659913 5.07556444 10.05119434
H 2.18972119 5.08366150 9.27400903
H 2.13061705 1.19128308 9.31040235
H 2.12253039 1.18412443 10.85765695
H 6.51742275 14.48972041 12.30038694
H 7.40231480 1.15414576 12.30683824
H 7.39352038 1.18226643 16.81840099
H 6.04833495 1.18534509 17.58091209
H 6.04410113 5.07729273 17.56352070
H 6.03510077 5.06946766 16.01837038
H 1.32016744 2.72245215 16.78654898
H 1.75806731 1.45830289 16.01377664
H 8.17095704 8.77093299 12.30232767
H 9.07314511 10.02633981 12.30486709
H 13.43461682 12.10436005 10.84767938
H 12.99026727 10.83702858 10.08236905
H 14.28337565 13.67299545 12.30551175
H 15.18765441 12.41859617 12.29914953
H 13.43327682 12.09725614 13.75298585
H 12.98594881 10.83636012 14.52822985
H 9.91223330 8.48268993 15.32214060
H 9.91824214 8.48652870 13.77700813
H 9.95092378 12.38091917 15.33807189
H 11.28960006 12.37601184 14.56428862
H 13.40935566 8.72665248 10.85617139
H 12.07173575 8.73573089 10.08323894
H 12.06651545 8.73271443 14.56975196
H 13.40716950 8.73284507 15.34384440
H 9.52599211 12.13098433 17.58327425
H 8.19034967 12.13587949 16.80447442
H 9.56112275 12.13433895 13.07463433
H 9.56036222 12.13309096 11.52755001
H 9.95925134 12.38872006 9.26615184
H 11.29697603 12.37776284 10.04215104
H 9.92795696 8.45827729 10.86197292
H 10.37646016 7.19832198 10.08780724
H 14.25693084 7.19052164 12.33085333
H 13.80873048 8.45328681 13.09876162
H 15.17358096 8.48194049 16.80755617
H 13.83844701 8.47871203 17.58968156
H 13.81038449 12.41356045 15.99690390
H 14.24037330 13.67556271 16.78077896
H 9.07074489 10.02077000 16.79125077
H 8.17638438 8.75968768 16.78962973
H 1.75965237 8.72420886 11.51727521
H 0.42007501 8.73338783 12.29067622
H 5.64514531 12.12957345 10.84403010
H 4.30615215 12.14088301 10.06868160
H 6.06856315 12.37959373 13.08926730
H 7.40552312 12.37860120 12.31163575
H 4.30745763 12.12940874 14.56220618
H 5.64724793 12.14272265 15.33334131
H 2.18357301 8.48051641 13.76071267
H 3.52446422 8.48353201 14.53082796
H 2.15329133 12.37750687 13.77786966
H 2.14471266 12.38113420 15.32501099
H 5.20987373 10.03157674 10.02682425
H 5.65544531 8.76766541 9.25591441
H 5.66475456 8.75929735 15.32576971
H 5.22398113 10.02817199 14.56108493
H 0.41550175 12.13777724 16.81361096
H 1.75925034 12.13196056 17.58212552
H 1.33627406 10.83931788 12.28434251
H 1.78513059 12.10092935 11.51212874
H 2.59936511 13.67914688 10.05107279
H 2.16341544 12.42137013 9.26763324
H 2.64342731 7.19091790 10.06972446
H 3.53022209 8.45706914 10.06473586
H 6.02872508 8.48548247 11.51783288
H 6.02972113 8.49267107 13.06509788
H 6.04157236 8.44145353 17.57268721
H 6.49598925 7.18798289 16.79361491
H 6.04782019 12.40610846 17.57091503
H 6.48713978 13.67490418 16.80403717
H 1.33348775 10.02919776 16.77180583
H 1.78198888 8.76574081 16.00253431
