384

O 9.08203967 1.74652996 12.31461354
O 12.97291485 4.49762923 10.05118681
O 14.27011238 5.41251719 12.29063731
O 12.96860647 4.50789488 14.53572614
O 10.38510244 0.84369007 14.55469292
O 10.37684094 5.40845022 14.53485970
O 12.95344124 1.75645504 10.05791428
O 12.97274481 1.77139348 14.55397527
O 9.08310744 4.51181472 16.78111306
O 9.08595713 4.48790838 12.29099425
O 10.38342874 5.40735765 10.05579581
O 10.37405853 0.84614551 10.06575903
O 14.25782580 0.85654695 12.30466168
O 14.25848561 0.84762362 16.79042031
O 14.26720254 5.41176141 16.77788345
O 9.08907841 1.76651653 16.78277048
O 9.08848931 9.06604196 3.32714191
O 12.98668726 11.79755722 1.09340815
O 14.27227066 12.71291943 3.33360009
O 12.97755648 11.81224664 5.57749021
O 10.38556528 8.15635280 5.56360595
O 10.38719762 12.72003835 5.57127933
O 12.96775121 9.06060968 1.08242437
O 12.97364808 9.06738357 5.58127231
O 9.10569505 11.79740651 7.81433094
O 9.09897721 11.81044905 3.33672117
O 10.39413461 12.70642254 1.08891347
O 10.38302412 8.14671794 1.08113162
O 14.26491535 8.15989792 3.32925151
O 14.26152950 8.15164168 7.81834865
O 14.25143478 12.70882766 7.83039664
O 9.09116809 9.05569679 7.81184288
O 1.32546535 9.06416664 3.34182586
O 5.20740061 11.81259200 1.10311762
O 6.50499022 12.72475523 3.34717461
O 5.21307110 11.80664075 5.58497438
O 2.61775870 8.14829426 5.58139593
O 2.62477838 12.72129535 5.59360424
O 5.20639360 9.06838598 1.09832915
O 5.20389483 9.06487526 5.59023106
O 1.31409477 11.80324619 7.82482393
O 1.33186333 11.80614664 3.34532051
O 2.61433409 12.71852571 1.09676199
O 2.61912925 8.15920530 1.10153173
O 6.49140077 8.16946933 3.34431032
O 6.49572521 8.16410744 7.83518933
O 6.51289599 12.71199830 7.82611630
O 1.31643379 9.05697925 7.81710369
O 1.31870906 1.76028927 3.34274511
O 5.21180764 4.49653259 1.10540469
O 6.51543779 5.42382769 3.32667201
O 5.21672460 4.52166258 5.57400723
O 2.62648008 0.86030302 5.59059907
O 2.62066435 5.40910877 5.57503732
O 5.20169915 1.75549659 1.10559947
O 5.20838131 1.77787686 5.59086739
O 1.32256488 4.50099115 7.81875593
O 1.32240337 4.50054021 3.34430322
O 2.61913191 5.41293335 1.09927073
O 2.61053116 0.85833634 1.09458628
O 6.50153672 0.86664975 3.34879696
O 6.49345792 0.85728608 7.83932775
O 6.49626395 5.42337489 7.82750388
O 1.32371594 1.75840839 7.83481383
O 9.09822269 1.75129173 3.32787688
O 12.97349744 4.50093132 1.07992573
O 14.26553416 5.41246910 3.32347432
O 12.97767453 4.50927754 5.56756045
O 10.38246193 0.85738072 5.58336928
O 10.39286809 5.41017049 5.57471443
O 12.97438891 1.75939071 1.09176766
O 12.97622345 1.77065358 5.58459217
O 9.08450150 4.51237513 7.81114042
O 9.10867569 4.49380580 3.32141900
O 10.38610400 5.40711069 1.07955219
O 10.38138477 0.85312383 1.07945794
O 14.26265294 0.85511101 3.33755976
O 14.26355708 0.85495105 7.82592838
O 14.26821222 5.41281512 7.81739880
O 9.08609384 1.76832723 7.82025287
O 1.31465631 1.75175373 12.31254128
O 5.19726680 4.50264103 10.05621403
O 6.49602154 5.40662861 12.30480511
O 5.20044744 4.50758879 14.55576786
O 2.60999328 0.85262468 14.55930761
O 2.60834948 5.40884824 14.54711320
O 5.18759542 1.76107595 10.07865765
O 5.19873037 1.76951399 14.56033486
O 1.32398940 4.50529074 16.79204587
O 1.31335412 4.49004017 12.30932985
O 2.60679377 5.41106207 10.06588998
O 2.60759438 0.83877158 10.07192012
O 6.48590583 0.85810098 12.31982330
O 6.49524974 0.85619362 16.80291073
O 6.48655268 5.41870573 16.80088027
O 1.30964297 1.76105510 16.79371066
O 9.08392887 9.06850893 12.30015464
O 12.96649989 11.79692347 10.06999865
O 14.26117233 12.71642919 12.31061860
O 12.96058538 11.79562050 14.53951627
O 10.37179405 8.14863957 14.53731257
O 10.36465215 12.70287379 14.54985376
O 12.96402644 9.06096460 10.06122970
O 12.96259019 9.05820609 14.53386672
O 9.08377895 11.79643827 16.80386370
O 9.07451385 11.80955284 12.30628005
O 10.37841483 12.71055654 10.06880662
O 10.37750977 8.15110603 10.05669612
O 14.26695149 8.15402684 12.30163563
O 14.25947121 8.15347365 16.78224200
O 14.26493675 12.70596152 16.78409429
O 9.08004929 9.05359484 16.78570377
O 1.32190114 9.06570628 12.30980580
O 5.20132397 11.81013097 10.06142896
O 6.48073591 12.72358111 12.31503099
O 5.20515429 11.80341517 14.55562219
O 2.59909045 8.15692631 14.55763409
O 2.61332474 12.70818770 14.56202095
O 5.19677738 9.06731266 10.07815118
O 5.19578719 9.06457908 14.55969893
O 1.31803587 11.79936382 16.80176730
O 1.32247663 11.80797634 12.31721467
O 2.61562698 12.70400027 10.06876019
O 2.60485101 8.15342327 10.06902289
O 6.49460156 8.15195046 12.31502432
O 6.48352180 8.16348711 16.79898509
O 6.50113721 12.71581937 16.80054511
O 1.31327541 9.06250750 16.80522791
H 9.55503326 1.41411940 13.08483821
H 9.54847920 1.42004543 11.53786547
H 13.44483665 4.82584295 10.82393728
H 13.44192281 4.83076775 9.27839273
H 15.17072663 5.07166208 12.31838669
H 13.82793375 5.09105787 13.08344673
H 12.06319562 4.83610839 14.55535424
H 13.40202404 4.83941111 15.32939657
H 11.28783831 1.17828369 14.57300280
H 9.94788882 1.18289858 15.34338744
H 10.36228480 6.37159216 14.54473459
H 9.91603641 5.11719205 15.32877973
H 12.97270824 2.71952800 10.04154706
H 13.41979951 1.45891339 9.26921681
H 12.97922648 2.73450182 14.53090639
H 13.42313271 1.47156895 13.75749486
H 8.17908609 4.84234089 16.80597644
H 9.52162851 4.83747799 17.57444528
H 9.53925819 4.79273370 13.08425763
H 9.09850150 3.52513484 12.31791986
H 11.28807900 5.07690247 10.06866551
H 9.95267906 5.06886813 10.84793509
H 11.27805988 1.17866985 10.04113591
H 9.93470232 1.18033218 9.27680887
H 14.23973551 14.49555671 12.29392684
H 13.79549663 1.15172006 11.51317999
H 15.16359846 1.17726028 16.77415037
H 13.82750778 1.18733700 15.99868893
H 13.81302158 5.10934016 17.57147075
H 14.25357874 6.37468119 16.79959573
H 9.09540896 2.72942160 16.80233405
H 9.54061682 1.46847455 17.57975002
H 9.07235784 10.02912569 3.33057621
H 8.17088921 8.77358685 3.33083144
H 13.43355709 12.09836318 0.29517421
H 12.98912972 10.83470852 1.06840484
H 13.84559010 12.37611618 2.53840420
H 15.17773186 12.38480426 3.32328524
H 13.41335672 12.13341251 4.78078406
H 12.07466468 12.14657898 5.55615567
H 9.91439137 8.47973709 6.33891855
H 9.91146689 8.48562158 4.79244334
H 9.94264638 12.41114947 6.36806546
H 10.37451759 13.68271019 5.60060615
H 13.40244598 8.73538816 1.87786343
H 12.06340288 8.72963619 1.10297473
H 12.05813141 8.76778831 5.56999795
H 12.94979510 10.03024843 5.57720579
H 9.11357973 10.83437475 7.83489476
H 9.55281308 12.09579829 8.61344072
H 8.19540822 12.14294888 3.35372564
H 9.53092904 12.14318818 4.13114415
H 11.29950947 12.37882509 1.10918137
H 9.96187106 12.38343484 1.88666526
H 9.92208491 8.45127488 1.86987945
H 10.37276693 7.18376625 1.10642348
H 15.17083206 8.48598066 3.35010150
H 13.83136500 8.49298984 4.12185553
H 13.79205164 8.48164018 8.59173099
H 13.79206377 8.48308499 7.04510411
H 13.80408613 12.41388598 7.02963492
H 14.24689089 13.67165223 7.80959260
H 8.18399392 8.73322636 7.83897532
H 9.52907929 8.72085479 8.60172178
H 1.79734827 8.73720813 2.56827132
H 1.79074507 8.72557078 4.11414169
H 5.64337205 12.14193725 0.31005951
H 4.30243784 12.14089445 1.08006619
H 6.03356319 12.38945851 4.11728667
H 6.03715368 12.39673539 2.57191141
H 5.18417753 10.84381992 5.58436826
H 4.29941246 12.11164931 5.59317742
H 2.15524938 8.44667411 6.37192805
H 2.60295617 7.18518101 5.59956309
H 2.61894181 13.68429283 5.60984067
H 2.15866975 12.42596443 6.38262293
H 5.21385929 10.03146145 1.08198178
H 5.66093071 8.77509792 0.30095342
H 4.30079608 8.73036074 5.57286644
H 5.63542233 8.73975394 4.79256883
H 0.39872492 12.10218035 7.82783000
H 1.29085512 10.84046618 7.82323827
H 1.34908900 10.84345236 3.36885197
H 1.78766409 12.11215518 4.13649808
H 2.15314633 12.38727870 1.87474443
H 2.14107995 12.38449527 0.32761065
H 2.64251026 7.19644549 1.10075094
H 3.53436912 8.45963701 1.09671848
H 6.04127736 8.46856357 2.54670560
H 6.49193173 7.20684915 3.31771761
H 6.48054024 7.20123907 7.81363767
H 6.03879171 8.46385558 7.04176882
H 7.41793499 12.38375453 7.80358824
H 6.07650143 12.38105592 7.03379317
H 0.41106215 8.72906021 7.83705877
H 1.74852320 8.73375613 8.61480080
H 0.41487877 1.42764941 3.32329656
H 1.75031616 1.43298855 2.54627963
H 5.21942976 3.53358548 1.08178803
H 5.65530137 4.79913262 0.30567901
H 7.41862539 5.09091544 3.31019428
H 6.08070599 5.08341793 2.53707375
H 5.65511058 4.85176155 4.78274551
H 4.31026419 4.84617562 5.54857401
H 3.52782438 1.19921235 5.56641120
H 2.18545845 1.18427777 4.79840832
H 2.14377439 5.07801521 4.80612910
H 2.15988848 5.07424757 6.35159693
H 4.29499323 1.43116451 1.07930130
H 5.63953844 1.42279425 0.31486777
H 5.22404898 2.74074734 5.56994436
H 5.66526021 1.47719857 4.79793706
H 1.77603388 4.80516419 8.61211984
H 1.33525042 3.53829050 7.84538002
H 0.40863639 4.80467577 3.33533375
H 1.29516515 3.53766593 3.33828915
H 2.18388519 5.08252593 1.89215535
H 3.52154039 5.07743903 1.11736692
H 2.15133757 1.15715221 0.30247173
H 2.59547657 14.49745701 1.07798969
H 6.48797182 14.50578544 3.33299213
H 6.03913536 1.16058551 2.55636866
H 6.48804221 14.49679571 7.81119326
H 6.04004679 1.16137660 7.04586857
H 6.03366977 5.09818742 7.04778288
H 6.02029659 5.08612545 8.59406898
H 1.78958076 1.42096664 8.60757242
H 1.79847882 1.43599471 7.06150781
H 8.19029884 1.43033840 3.35101179
H 9.52985808 1.42592360 4.12484748
H 13.43012397 4.80037568 1.87316186
H 12.98698068 3.53805223 1.09730693
H 14.25917870 6.37543989 3.34176490
H 13.80831418 5.11993914 4.11927366
H 13.41490750 4.83614964 6.36094688
H 12.07162432 4.83590967 5.59375539
H 9.94530280 1.19317913 6.37321234
H 11.28691870 1.18710141 5.60282383
H 9.92572510 5.11830064 6.36492543
H 10.37693883 6.37325776 5.58399148
H 13.40699598 1.43195213 0.29585682
H 12.06858530 1.43321489 1.07154189
H 12.98556835 2.73347669 5.55883727
H 13.42501989 1.46691731 4.78851995
H 9.52212803 4.83511740 8.60611790
H 8.18087095 4.84464751 7.83586953
H 9.11419890 3.53087386 3.34595562
H 9.55904256 4.79435429 4.11775089
H 9.95864231 5.06935853 1.87423224
H 11.29202862 5.07961216 1.09408469
H 9.92785642 1.14611291 1.87740465
H 10.37634856 14.49233798 1.09831108
H 14.25441157 14.49405462 3.32009664
H 13.80643401 1.14901577 2.54172239
H 15.17070844 1.17780323 7.80920197
H 13.83409437 1.19019713 7.03152509
H 15.18328981 5.11239480 7.81583900
H 14.28955239 6.37573508 7.81373832
H 8.17202271 1.46502568 7.82318458
H 9.05818608 2.73107592 7.82094442
H 1.74862725 1.41711895 11.52054451
H 0.40805409 1.42670689 12.29104844
H 4.28303737 4.80524181 10.06448651
H 5.17172013 3.53999189 10.06310175
H 7.39788691 5.06923954 12.28475273
H 6.06014965 5.08141535 11.51018241
H 4.29535320 4.83597389 14.53375651
H 5.63434737 4.82668502 13.75750599
H 2.17457248 1.17483280 13.76298417
H 3.51390142 1.18395659 14.53833009
H 2.59323482 6.37158310 14.56670872
H 2.15666866 5.11107773 15.34428157
H 5.66120631 1.44276343 10.85448716
H 5.65915951 1.43032840 9.30679725
H 5.20659518 2.73241474 14.58204625
H 5.65434910 1.46835169 15.35338269
H 0.41956358 4.83603073 16.81016299
H 1.75766308 4.83076964 17.58772163
H 1.77070490 4.78739701 13.10285742
H 1.32653960 3.52693455 12.32279172
H 2.59585257 6.37411180 10.08635628
H 2.15169757 5.11068939 10.85935246
H 2.63451934 14.47766271 10.07060553
H 3.52225413 1.14085442 10.07721389
H 6.05350468 1.19126027 13.11358512
H 7.39357109 1.17911949 12.34039397
H 6.52196285 14.49541399 16.79559641
H 7.40969439 1.15792697 16.79772955
H 6.03350126 5.12254890 16.00417879
H 6.47310861 6.38176583 16.78244340
H 1.32359504 2.72393241 16.78072876
H 1.77212162 1.46674145 16.00171866
H 9.08611076 10.03150335 12.28078603
H 9.54049770 8.77139822 11.50612512
H 13.39805446 12.12624649 9.27405430
H 12.06240046 12.12828709 10.05313254
H 13.79451571 12.38384553 11.53660881
H 13.79052001 12.38191241 13.08180459
H 12.04399315 12.09009609 14.54606586
H 12.94355987 10.83241415 14.53832795
H 11.27784291 8.47395332 14.51504151
H 9.93642388 8.48503224 13.74664500
H 10.36437910 13.66575045 14.57356938
H 9.91708515 12.40510826 15.34888833
H 13.42660023 8.76225818 10.85119563
H 12.97307244 10.02401504 10.08173439
H 13.43039221 8.73261892 15.30995042
H 13.43651800 8.72570603 13.76388831
H 9.09801180 10.83341509 16.81813445
H 9.54985134 12.09210075 17.59339527
H 8.17037815 12.14015696 12.32453361
H 9.50575625 12.13397867 13.10440300
H 10.36794680 13.67378569 10.08017614
H 9.91742310 12.41990932 10.86285208
H 10.40186368 7.18823631 10.06134505
H 11.29291250 8.45091872 10.06127057
H 15.18149866 8.45570885 12.30523847
H 14.29198040 7.19109422 12.29465608
H 15.16351899 8.48454938 16.81066381
H 13.81991440 8.48114374 17.57407862
H 14.25121853 13.66896506 16.76593686
H 13.80335799 12.40616483 15.99405025
H 9.55008650 8.72899286 16.01056281
H 9.54659089 8.71543501 17.55738657
H 1.77309620 8.77145180 13.10827849
H 1.32686457 10.02875442 12.32740300
H 5.66949791 12.10292199 9.27223226
H 5.21783212 10.84697613 10.05254420
H 6.03073482 12.42600468 11.51744622
H 6.46959272 13.68667783 12.29941465
H 4.29912530 12.13004499 14.54064698
H 5.63256332 12.14038312 13.76058238
H 3.50470437 8.48338152 14.57852523
H 2.16710203 8.48423386 15.35402432
H 2.60469672 13.67113878 14.54295781
H 2.15773443 12.41261660 13.76624389
H 5.66285959 8.73705595 9.30258844
H 5.66993480 8.73516380 10.84843762
H 5.20604190 10.02748768 14.53184839
H 5.65128989 8.75913347 13.76818482
H 1.75665214 12.12719788 16.00914763
H 0.41348771 12.12938651 16.77320427
H 0.41763018 12.13641894 12.29469693
H 1.75854559 12.13104381 11.52154090
H 2.17796522 12.37505974 9.27660523
H 3.52061163 12.37402801 10.04402947
H 3.51044715 8.48076824 10.08766198
H 2.17342138 8.49017582 10.86174384
H 7.40961344 8.45218772 12.31024110
H 6.51822798 7.18912026 12.31435629
H 6.04923479 8.49548033 16.00551591
H 7.39185035 8.48236845 16.77282834
H 7.40269034 12.37670768 16.78921357
H 6.06919079 12.38610341 16.00560734
H 1.77507576 8.76381074 17.59574457
H 1.32480181 10.02559477 16.82204409
