384

O 9.07727318 1.75437333 12.31315096
O 12.97690742 4.49796682 10.06783635
O 14.26309597 5.40966904 12.31729546
O 12.97842871 4.50488752 14.56035560
O 10.38526860 0.85701200 14.55286060
O 10.38854378 5.41258932 14.54960370
O 12.95526069 1.75481298 10.07825517
O 12.97279259 1.76237682 14.55688425
O 9.09285182 4.50579152 16.79286341
O 9.10570998 4.49352860 12.30069484
O 10.38636075 5.40562726 10.05857205
O 10.36528331 0.84049713 10.06821480
O 14.26591399 0.85167506 12.31622677
O 14.25884921 0.84866935 16.80112197
O 14.27230057 5.41195656 16.80422055
O 9.08568064 1.75982728 16.79350298
O 9.08523685 9.06222119 3.33545891
O 12.98128758 11.80122829 1.10459949
O 14.26058129 12.71795353 3.35299062
O 12.97102117 11.80374648 5.59009084
O 10.38459846 8.14317720 5.57448976
O 10.37542101 12.71242664 5.57991312
O 12.96134219 9.05927500 1.10775938
O 12.97452570 9.05926185 5.59653482
O 9.07753764 11.79458767 7.81842974
O 9.08845031 11.80192722 3.33206533
O 10.38920138 12.71297553 1.09082142
O 10.37602181 8.14855943 1.09210182
O 14.25637674 8.15286327 3.34917404
O 14.26711232 8.15279245 7.83927275
O 14.27506830 12.70980730 7.82897824
O 9.07842738 9.05610103 7.80454857
O 1.30940874 9.06991608 3.33988464
O 5.20608949 11.81201471 1.09000176
O 6.50729805 12.71657958 3.32291055
O 5.21609959 11.80789762 5.56099571
O 2.60931343 8.15820244 5.58091758
O 2.62284795 12.71871895 5.56991849
O 5.19771056 9.07000790 1.08138253
O 5.19836534 9.06595711 5.56509894
O 1.33238628 11.81193878 7.81061702
O 1.32306186 11.80608455 3.33120681
O 2.62011996 12.72169855 1.09066606
O 2.60917979 8.16161931 1.09942771
O 6.49313901 8.15697133 3.32055278
O 6.49094507 8.15479725 7.80312293
O 6.49545991 12.71038073 7.82279708
O 1.32180151 9.06897425 7.82488622
O 1.30945378 1.76772477 3.33691874
O 5.20232007 4.50836503 1.07651515
O 6.49449721 5.41308418 3.32282019
O 5.21462384 4.50545190 5.57768357
O 2.59974847 0.86075532 5.58572456
O 2.62407110 5.41531916 5.58137685
O 5.19095495 1.76762664 1.08511358
O 5.19563197 1.76233575 5.57888732
O 1.33112076 4.50519651 7.82507846
O 1.32143795 4.51190717 3.34123245
O 2.61185598 5.42010092 1.09364503
O 2.60438419 0.85923656 1.09310634
O 6.48567388 0.85346245 3.32900636
O 6.48667082 0.85112726 7.82757296
O 6.50028804 5.41767723 7.82142881
O 1.30987373 1.76082879 7.83483749
O 9.08383016 1.75853703 3.33508070
O 12.97654167 4.50047104 1.10325724
O 14.26527032 5.40663281 3.34426599
O 12.96953970 4.50410884 5.58950996
O 10.37233473 0.85106317 5.58399449
O 10.37014080 5.40050181 5.56922950
O 12.96723884 1.76180542 1.09871936
O 12.96546539 1.75512190 5.59055410
O 9.08873540 4.50016663 7.81764231
O 9.08661276 4.50025485 3.32770680
O 10.38630884 5.40792518 1.08900785
O 10.37760523 0.84980489 1.09634647
O 14.25140363 0.86072363 3.34126828
O 14.25317733 0.84759348 7.84166472
O 14.27574775 5.40899337 7.82593434
O 9.07458562 1.75938273 7.82560498
O 1.31895488 1.76847084 12.32112516
O 5.21487082 4.51050528 10.06410825
O 6.51859785 5.41980011 12.30033937
O 5.21635564 4.51230291 14.53962417
O 2.61264740 0.86111723 14.56240432
O 2.62478418 5.41525863 14.55052227
O 5.20301704 1.76592739 10.07242984
O 5.20021845 1.77228525 14.55782724
O 1.32566289 4.50483295 16.78613151
O 1.32744012 4.50368968 12.30681107
O 2.62122540 5.41788228 10.06773470
O 2.61010088 0.85799010 10.08363197
O 6.48632438 0.84442496 12.31835258
O 6.49553414 0.85303099 16.79322888
O 6.50806527 5.41546140 16.78557668
O 1.31324815 1.76228748 16.79784534
O 9.08087964 9.06275143 12.29956349
O 12.96886315 11.80154723 10.06501579
O 14.26232841 12.71009512 12.30548423
O 12.98196071 11.80323508 14.55393028
O 10.38091598 8.15104579 14.54292624
O 10.40083436 12.71109446 14.55445665
O 12.95966192 9.06182981 10.06843879
O 12.96776511 9.05856599 14.54779866
O 9.09300194 11.80713959 16.79210033
O 9.09789228 11.80225738 12.30764850
O 10.38141253 12.69952562 10.06351397
O 10.36818258 8.14936853 10.05242916
O 14.26865715 8.15618032 12.30820528
O 14.24586366 8.15430015 16.80891866
O 14.27331277 12.71091618 16.80307220
O 9.08851044 9.05762377 16.79153126
O 1.32714801 9.06620838 12.30572437
O 5.20083636 11.80523303 10.06385471
O 6.51176376 12.70442898 12.30217729
O 5.20462352 11.80057285 14.53924024
O 2.60808343 8.15928989 14.56354408
O 2.62273714 12.72087742 14.54920530
O 5.20630066 9.06532333 10.04909959
O 5.19702450 9.06099660 14.54466978
O 1.33016947 11.80293479 16.79609021
O 1.32413760 11.80582499 12.30342136
O 2.61401835 12.72000979 10.05877720
O 2.61967465 8.15878891 10.06198172
O 6.48580102 8.16014762 12.29824371
O 6.49275770 8.15443861 16.78063856
O 6.50230308 12.71246372 16.78657191
O 1.30580540 9.06278957 16.80594157
H 9.50958332 1.42263565 11.51896924
H 8.17150302 1.42789374 12.29574427
H 12.98736562 3.53502646 10.05194650
H 13.43732869 4.79477535 9.27572376
H 14.25703229 6.37242503 12.29408985
H 13.81297899 5.10977262 11.52036871
H 12.07456638 4.83736804 14.54401290
H 13.40858941 4.83452251 13.76374901
H 9.90989610 1.17676454 13.77877194
H 9.91384835 1.18512795 15.32600112
H 9.93168550 5.11657337 15.34384879
H 10.37455999 6.37566939 14.56284316
H 13.42850444 1.43153085 10.85219215
H 13.42046869 1.41586440 9.30594560
H 12.95284057 2.72550356 14.55846004
H 12.05589732 1.46719296 14.55159406
H 9.10217858 3.54280541 16.80813569
H 9.55371717 4.79901171 17.58633635
H 9.55652754 4.79381165 13.09685759
H 9.10666489 3.53062428 12.32426221
H 11.29182865 5.07716531 10.07209595
H 9.95904236 5.06999715 10.85392185
H 9.93513285 1.17582644 9.27433120
H 11.26869484 1.17419630 10.05689581
H 13.82810845 1.18604488 13.10632624
H 15.17115361 1.17952115 12.33937489
H 13.80164152 1.14575107 16.00728213
H 14.25346756 14.48782983 16.78276527
H 13.83392633 5.08205850 16.01246941
H 15.17737269 5.08353326 16.77641031
H 8.18018299 1.43237149 16.81541535
H 9.52131753 1.42953242 17.58636137
H 9.56046983 8.73293517 4.10559824
H 9.54593083 8.72608967 2.55931674
H 12.06735260 12.10486495 1.09397451
H 12.95192948 10.83835813 1.10799655
H 13.80792790 12.41558903 2.55834155
H 14.25188455 13.68079874 3.32803955
H 13.40205436 12.14141138 4.79736282
H 12.06387162 12.12629615 5.57064655
H 9.94408071 8.47769105 6.36325210
H 11.28881711 8.47343908 5.60162877
H 9.90328312 12.38255521 6.35173645
H 9.91098785 12.38000060 4.80470004
H 13.39086067 8.72859907 0.31123553
H 12.05657639 8.72902721 1.08875195
H 13.42761024 8.75798606 4.80155539
H 12.98353963 10.02196407 5.57042134
H 9.51872005 12.12404015 8.60842605
H 8.17391339 12.12768507 7.84529279
H 9.10486542 10.83913411 3.30938219
H 9.54885600 12.10614074 2.54260533
H 10.37847630 13.67608786 1.07713071
H 9.92933861 12.41829206 0.29772450
H 10.36713297 7.18558884 1.07335588
H 9.91871351 8.44579191 0.29811859
H 15.16026292 8.48394570 3.32500852
H 13.81865162 8.47751772 2.55484366
H 13.80385761 8.48432245 7.06252216
H 13.78872758 8.48151439 8.60799937
H 13.83344625 12.37906602 7.03951467
H 15.18100686 12.38379318 7.79801493
H 9.52896208 8.75255267 8.59998693
H 9.08881132 10.01913906 7.82908513
H 1.77457594 8.73775230 4.11503944
H 1.78300887 8.74239717 2.56789499
H 5.67161175 12.14073573 0.31370982
H 5.68074790 12.14188331 1.86067546
H 6.07373958 12.38711034 4.11762100
H 7.40995426 12.38047952 3.34016319
H 5.21848599 10.84496383 5.58467019
H 5.66152028 12.10662095 6.36089408
H 2.15181166 8.45690551 6.37438825
H 2.60077670 7.19524750 5.60271319
H 2.18665024 12.39087687 4.77647518
H 3.52930611 12.39463757 5.54596230
H 5.21377204 10.03310446 1.09946879
H 5.65796244 8.77287027 1.87358456
H 5.63333689 8.73343849 6.35756685
H 4.29263968 8.73875001 5.58832729
H 1.34035478 10.84886236 7.79721822
H 1.79062031 12.10582732 7.01607197
H 0.40957441 12.11038975 3.33788941
H 1.29508616 10.84317731 3.33695106
H 2.18019224 12.38250991 1.87726713
H 3.52627492 12.39580857 1.11421541
H 2.16655077 8.49287246 0.31061895
H 3.51285875 8.49373903 1.07215840
H 6.05600142 8.48308034 4.11427167
H 7.39913759 8.48240168 3.34636186
H 6.05850053 8.48358365 8.59859438
H 7.39589824 8.48446018 7.82154271
H 6.48039264 13.67332894 7.83748002
H 6.03526461 12.41295628 8.61482888
H 1.75743988 8.74105306 8.61900108
H 0.41522126 8.74466611 7.85108549
H 1.32841902 2.73054455 3.35390430
H 1.76279965 1.46890929 4.13236353
H 5.17438789 3.54551877 1.08469979
H 4.28825319 4.81163819 1.07988583
H 6.03634860 5.11528572 2.52985056
H 6.48509804 6.37581626 3.30391189
H 5.66242129 4.80396483 4.77901778
H 5.22112487 3.54255838 5.55632328
H 2.14339373 1.15220786 6.38213048
H 2.59498004 14.50004149 5.59995393
H 3.52908371 5.08667937 5.60119278
H 2.18750522 5.07935252 6.37150713
H 4.28718510 1.43520500 1.10844381
H 5.62876704 1.43682227 1.87655278
H 5.62509107 1.42645229 4.78520731
H 4.28812482 1.44039186 5.56338111
H 0.41758971 4.81113184 7.82005352
H 1.29977591 3.54270883 7.82934239
H 1.78830365 4.84112930 2.56595090
H 1.79599816 4.83791460 4.11329487
H 2.60029685 6.38301170 1.07240336
H 2.15799286 5.11949088 0.29933420
H 2.59769139 14.49820441 1.11268390
H 2.15101228 1.15796959 1.88863738
H 7.39920634 1.15802736 3.33590211
H 6.51715291 14.49275519 3.32769113
H 6.05088374 1.17590174 7.03255964
H 7.39188408 1.17951329 7.80335534
H 6.48906843 6.38050011 7.79587806
H 6.05261020 5.11331567 7.02469755
H 0.40543703 1.43105570 7.85716835
H 1.74560574 1.43788741 8.63052646
H 9.53612105 1.46072741 4.13149081
H 9.09046998 2.72162133 3.35494089
H 13.44833048 4.82976353 1.87586345
H 13.44413293 4.83295509 0.32968686
H 14.28631753 6.36951074 3.34560406
H 15.18204773 5.11023778 3.34729202
H 13.40636668 4.83072364 4.79565276
H 12.06296623 4.82737149 5.56247459
H 11.28988166 1.14294834 5.58445231
H 10.38723725 14.48997419 5.58447030
H 10.36542064 6.36340189 5.59472959
H 9.92008167 5.10148204 6.36693291
H 12.98335708 2.72480668 1.07792497
H 13.42112201 1.45871679 0.30501430
H 13.41926655 1.46310359 4.79241756
H 12.97291588 2.71793134 5.57388970
H 8.18547707 4.83336911 7.83904569
H 9.52604758 4.82390657 8.61253405
H 8.18261656 4.83199121 3.33873472
H 9.51405809 4.83354135 4.12430428
H 11.29221614 5.08215789 1.11414133
H 9.94851904 5.08038886 1.88196986
H 11.28129057 1.18256549 1.11148199
H 9.94615285 1.18037010 1.89174374
H 13.81881011 1.18790557 2.54490485
H 15.15586593 1.19100675 3.32164056
H 14.24726648 14.48685827 7.81307211
H 13.80216007 1.15081471 7.04638741
H 14.26099736 6.37219564 7.81627045
H 13.81092893 5.11787184 7.03424742
H 9.08596034 2.72235708 7.80642464
H 9.53387659 1.45944611 7.03406921
H 1.78732461 1.43889810 13.09545823
H 1.78921992 1.43604534 11.54876094
H 4.30955767 4.83885960 10.04979518
H 5.64345796 4.84472322 9.26873219
H 7.42076539 5.08418210 12.27944357
H 6.07941541 5.09145857 11.50840623
H 5.69063212 4.83845250 13.76765145
H 5.68461910 4.83999626 15.31496166
H 2.60829107 14.50014013 14.57441619
H 2.14919181 1.15059430 15.35571211
H 3.53342652 5.09725079 14.52436569
H 2.18946771 5.08680079 13.75682085
H 5.21641730 2.72883462 10.05035858
H 5.65816097 1.46638669 9.27809806
H 5.18583917 2.73539626 14.55077510
H 4.28321184 1.47783121 14.56406872
H 1.33428894 3.54173889 16.77486990
H 1.78988351 4.79651314 15.99429189
H 1.30346123 3.54055266 12.31240999
H 0.41261396 4.80398863 12.31125913
H 2.15298241 5.08287578 10.84000707
H 2.15101128 5.08677284 9.29497916
H 3.52404652 1.16153774 10.07129133
H 2.63747023 14.49724454 10.07288938
H 6.01848342 1.17720303 13.09168829
H 6.02035944 1.17992929 11.54516437
H 6.02188490 1.18023454 17.56541340
H 6.03049538 1.19137012 16.02040383
H 6.06470119 5.07853790 17.57160158
H 7.41261380 5.08552511 16.81346745
H 1.74487549 1.43434749 17.59418334
H 0.40777684 1.43448843 16.81627455
H 9.06635552 10.02589454 12.29979655
H 8.16320025 8.77127166 12.30297969
H 13.44769528 12.12404331 9.29423902
H 13.43381402 12.13098884 10.84172909
H 14.25163098 13.67280475 12.33352558
H 13.81085638 12.40686787 13.10068627
H 13.41758620 12.12620500 15.34954476
H 12.07711558 12.13357896 14.57794889
H 11.28606928 8.48048483 14.52270989
H 9.94578861 8.48122331 13.75005367
H 10.38082688 13.67364405 14.57346177
H 9.93285042 12.40840380 15.34006473
H 12.04480469 8.76129298 10.07039630
H 12.93817799 10.02471308 10.06874012
H 13.43295287 8.76520060 13.75708502
H 12.98340278 10.02149218 14.53685186
H 9.07173942 10.84442770 16.79289842
H 8.17694375 12.10447264 16.78616502
H 9.57098777 12.12718424 11.53379976
H 9.56914896 12.12810817 13.08141258
H 11.29908032 12.40645358 10.05565800
H 10.39902599 13.66266540 10.05865009
H 10.36830935 7.18617174 10.07262501
H 9.91013324 8.44366556 10.84661440
H 13.82971522 8.48521901 11.51682544
H 15.17370158 8.48432835 12.28434149
H 14.24793670 7.19123675 16.78843565
H 13.79705883 8.44805935 16.00914419
H 13.84131153 12.37655316 17.59607950
H 15.18026965 12.38771711 16.82004583
H 8.18355996 8.72931136 16.76846478
H 9.52251800 8.73685389 15.99388256
H 1.77743140 8.77013599 13.10355057
H 1.33855112 10.02925999 12.32124786
H 5.21186670 10.84204427 10.07925059
H 5.66368412 12.10076328 10.85505404
H 6.52061117 13.66751525 12.30978162
H 7.43132245 12.41791888 12.30341210
H 5.21330932 10.83743124 14.52611867
H 5.67179850 12.09379715 13.74981029
H 2.14273291 8.45207961 15.35397360
H 2.60079608 7.19641631 14.57577335
H 2.18295773 12.39671159 13.75628920
H 3.52580618 12.38675555 14.52183998
H 4.30070202 8.73678312 10.06861724
H 5.63685039 8.73102949 10.84327127
H 4.28991827 8.73798853 14.57251894
H 5.63278649 8.73175969 15.33823866
H 1.80211625 12.13525645 17.56716328
H 1.79607321 12.13119997 16.01999672
H 0.41877669 12.13347240 12.28856817
H 1.75360571 12.13470381 11.50673625
H 2.18726483 12.39355023 9.25930646
H 3.51683329 12.38446080 10.04821271
H 2.60656828 7.19571961 10.08147090
H 2.16635879 8.45919696 10.85693994
H 6.49150186 7.19708771 12.31492906
H 6.02679561 8.44914945 13.09416403
H 6.04139013 8.45668538 17.57580118
H 6.48665426 7.19137324 16.80621876
H 6.48690785 13.67538762 16.76654829
H 6.04409385 12.41148039 15.99494121
H 0.38886670 8.76890268 16.80649592
H 1.29126750 10.02578842 16.80026053
