384

O 9.07209616 1.76506864 12.32084999
O 12.98034461 4.49972973 10.07883230
O 14.27315459 5.41683875 12.31516735
O 12.97941647 4.50585825 14.55942447
O 10.37942735 0.85996585 14.56695949
O 10.39054591 5.41907973 14.54601430
O 12.96610464 1.75405333 10.07111768
O 12.96937144 1.76488115 14.55784825
O 9.09784883 4.50928385 16.79232227
O 9.10167239 4.50271574 12.30643756
O 10.38731228 5.40247890 10.06374380
O 10.37180098 0.85079916 10.07536750
O 14.26053431 0.86821927 12.31467747
O 14.25451657 0.85357299 16.80353855
O 14.27806708 5.42048679 16.79782987
O 9.07249680 1.76687446 16.79564107
O 9.09100046 9.06436067 3.33686880
O 12.97941994 11.80070522 1.08920682
O 14.25671420 12.71444437 3.34233407
O 12.96444702 11.80983020 5.58333873
O 10.37707181 8.15368571 5.58748293
O 10.37428088 12.70664648 5.58808265
O 12.96486142 9.06038869 1.08729779
O 12.95529780 9.06633280 5.57695952
O 9.07461440 11.79805076 7.82536245
O 9.09880836 11.80694373 3.33018519
O 10.39014233 12.71935238 1.08721913
O 10.37685313 8.16019576 1.09157766
O 14.25496956 8.15400028 3.33434373
O 14.25521408 8.15545357 7.82970962
O 14.27681788 12.71509780 7.81814771
O 9.07740864 9.05171656 7.82929425
O 1.31423473 9.06325915 3.33741424
O 5.21110486 11.79823958 1.08911292
O 6.50928248 12.71109203 3.32406555
O 5.19957677 11.80305075 5.56113092
O 2.61131082 8.15733551 5.58247082
O 2.60866026 12.71413828 5.56363524
O 5.20996576 9.06105712 1.08568682
O 5.19971483 9.05976346 5.57535290
O 1.32340760 11.80719026 7.81453669
O 1.31680481 11.80605256 3.32641737
O 2.62151313 12.70919661 1.09266561
O 2.61638751 8.15826983 1.09706435
O 6.50227873 8.15582647 3.33509271
O 6.48521744 8.14445343 7.82359665
O 6.48671685 12.70347240 7.81488095
O 1.31254418 9.06284772 7.82601966
O 1.30086794 1.76654035 3.33506992
O 5.21454128 4.50257197 1.10626242
O 6.50977234 5.41397415 3.33586832
O 5.21133638 4.49751794 5.57310870
O 2.60397296 0.85468626 5.57075601
O 2.62553175 5.41837883 5.56946717
O 5.19743846 1.75901501 1.09280715
O 5.19894164 1.75489247 5.57420133
O 1.32993569 4.50464033 7.81217614
O 1.32171832 4.50822781 3.34465537
O 2.62108702 5.41149150 1.10007366
O 2.60739026 0.85322014 1.09956923
O 6.50108500 0.85548455 3.33108740
O 6.49412183 0.84368887 7.81658683
O 6.50141008 5.40132739 7.81909727
O 1.31753674 1.76480143 7.81161369
O 9.09085581 1.76971082 3.34725399
O 12.98663420 4.50927009 1.09314590
O 14.26483588 5.40730752 3.34891577
O 12.97007972 4.49487815 5.59943098
O 10.37025799 0.85329355 5.59623642
O 10.37767487 5.41019622 5.58518003
O 12.96177103 1.76979557 1.09495184
O 12.95558976 1.75845303 5.58802281
O 9.09643724 4.50478350 7.82374255
O 9.10043550 4.51811422 3.33261928
O 10.39251465 5.42478273 1.08327623
O 10.37342299 0.86200062 1.09377943
O 14.24652328 0.85411393 3.33924973
O 14.25649933 0.85061454 7.81501065
O 14.26934778 5.41449940 7.82797317
O 9.07824217 1.76462545 7.83859528
O 1.32033410 1.76427903 12.31351231
O 5.20965501 4.48822306 10.05899797
O 6.50747628 5.39868579 12.30136858
O 5.21808863 4.50827319 14.55023000
O 2.61084348 0.84912329 14.55401018
O 2.63092513 5.41478854 14.55361124
O 5.18911253 1.74700430 10.05677414
O 5.19953610 1.76402193 14.53941321
O 1.33554544 4.49906186 16.79761843
O 1.33291636 4.51088939 12.31067840
O 2.62431834 5.40694274 10.05973464
O 2.59913568 0.85412876 10.06141778
O 6.48551982 0.84539536 12.30216124
O 6.48479701 0.85681531 16.78345769
O 6.50569374 5.41598712 16.79909291
O 1.31256749 1.75584598 16.80178531
O 9.08588417 9.05874187 12.31029327
O 12.97838485 11.80970141 10.06487387
O 14.27041448 12.72519853 12.30350533
O 12.97804912 11.81808877 14.54701039
O 10.38409986 8.15866434 14.54941267
O 10.38184844 12.72318504 14.54647842
O 12.96841911 9.07360209 10.07400314
O 12.96754173 9.07646247 14.54813573
O 9.08951885 11.81312441 16.79129735
O 9.08612984 11.79992670 12.30703848
O 10.38300252 12.70737193 10.06303651
O 10.38621861 8.14487268 10.07034229
O 14.26721345 8.15755461 12.30724140
O 14.25877834 8.16693999 16.79018178
O 14.27168302 12.70975546 16.79336344
O 9.09487292 9.07230803 16.79247660
O 1.31972526 9.06383360 12.31488967
O 5.19458572 11.80208566 10.05859910
O 6.49614906 12.70722807 12.29353411
O 5.20730467 11.80971414 14.53927691
O 2.61006967 8.16112063 14.56222899
O 2.62138419 12.70675425 14.55667808
O 5.19059486 9.06108981 10.06451545
O 5.19429848 9.06446711 14.54487116
O 1.32704928 11.80276657 16.79159441
O 1.32804292 11.79964499 12.30353564
O 2.60755014 12.71026180 10.05571587
O 2.60468685 8.14923786 10.07261484
O 6.49042233 8.14533135 12.31098307
O 6.50451191 8.15413385 16.78558729
O 6.50481729 12.71574176 16.78415505
O 1.31617773 9.06868170 16.79650973
H 9.09436474 2.72814133 12.33418474
H 9.53424337 1.46631556 13.11088114
H 12.95673535 3.53697856 10.07610828
H 12.06459218 4.79877404 10.07096083
H 13.79928208 5.08255558 11.54584511
H 13.81022096 5.08524940 13.09196720
H 12.07653247 4.84035039 14.57697182
H 13.41635560 4.83477766 15.35219552
H 11.29564204 1.15656432 14.56096873
H 10.39767357 14.49902376 14.55755582
H 9.93776977 5.12216019 13.74939357
H 10.37811896 6.38214412 14.52889043
H 12.06020237 1.42761254 10.05334047
H 13.39785518 1.42738176 9.27492413
H 13.42539738 1.47315338 13.76131075
H 12.98094426 2.72799265 14.54746178
H 9.54821934 4.80913427 15.99538253
H 9.10311239 3.54626701 16.77047471
H 8.19577023 4.82906755 12.28470258
H 9.53363645 4.82475456 11.50771024
H 10.38239129 6.36552417 10.04925675
H 9.93252696 5.11031101 9.26629965
H 9.90516316 1.17797311 10.85149878
H 9.90223766 1.18806906 9.30488776
H 14.25769954 14.50732054 12.29654543
H 13.80394484 1.15870218 11.51759670
H 14.24847279 14.49280775 16.78275791
H 13.80228626 1.15322805 16.00744606
H 15.18234498 5.08961944 16.81115931
H 13.84922890 5.08731398 17.59346341
H 9.53983763 1.44204269 17.57268079
H 9.54792789 1.43395481 16.02660091
H 8.17455349 8.76775017 3.34138396
H 9.07086617 10.02735318 3.33213373
H 13.43803704 12.09727830 0.29589931
H 12.98667037 10.83778598 1.06971344
H 14.24003161 13.67712558 3.31613925
H 13.80809240 12.40851313 2.54671115
H 13.43015400 12.14214582 4.80829628
H 13.44079561 12.13295807 6.35549378
H 9.93817745 8.48717669 4.79773720
H 11.28088906 8.48666578 5.56261059
H 10.39483784 13.66948685 5.59062139
H 11.29143549 12.41152779 5.58589025
H 13.39821103 8.73065301 1.88167826
H 12.05708194 8.73886638 1.10955891
H 13.41958077 8.76895241 4.78737559
H 12.97142930 10.02941731 5.56305573
H 9.08579014 10.83508745 7.81221687
H 9.53795393 12.09159296 7.03364428
H 8.19431122 12.13796733 3.34417277
H 9.52788385 12.13464349 4.12762548
H 9.95806187 12.38828230 1.88177922
H 11.29575420 12.39219868 1.10552294
H 9.91898525 8.45606027 1.88564230
H 10.37296549 7.19698984 1.10730255
H 15.17069298 8.45236736 3.33179490
H 14.27819076 7.19117297 3.34249374
H 13.79834746 8.45848422 7.03825443
H 14.24234320 7.19252965 7.80585238
H 15.18008265 12.38049808 7.84012024
H 13.83895841 12.38726202 8.61075548
H 9.54708798 8.72517239 8.60383890
H 9.54933152 8.72090468 7.05751063
H 1.32330125 10.02614262 3.31558866
H 1.77784454 8.76563845 2.54740117
H 5.18756886 10.83535797 1.08447116
H 4.29636928 12.09954077 1.08951964
H 6.04322378 12.37652330 2.54999672
H 6.03491897 12.38296268 4.09531313
H 5.63492212 12.13067548 6.35545797
H 4.29703622 12.13813099 5.58142695
H 2.13711684 8.47788273 6.35692791
H 2.13930569 8.48367911 4.80900329
H 2.15767691 12.41297455 6.35954312
H 2.59580844 13.67713222 5.58389012
H 5.67714189 8.73342216 1.86141420
H 5.68236179 8.73288892 0.31343318
H 5.17897789 10.02285097 5.57212595
H 4.28245014 8.76567996 5.58186308
H 1.78194346 12.10402974 8.60839746
H 1.33364287 10.84419277 7.83351528
H 0.41186735 12.13442439 3.34857834
H 1.75170801 12.13334050 4.12132594
H 2.15689597 12.40998568 1.88179281
H 2.60691339 13.67192319 1.11476701
H 3.52438090 8.47818535 1.07125625
H 2.18042793 8.48928171 0.30482159
H 6.03510799 8.45416356 4.12281682
H 6.49333219 7.19288002 3.35605049
H 6.05272053 8.47478632 7.02900681
H 7.39197121 8.46807615 7.80409454
H 6.51520787 13.66607066 7.81614241
H 7.40070109 12.39902456 7.81560726
H 1.74928126 8.72810575 8.61639530
H 0.40725956 8.73524962 7.84737007
H 1.32122516 2.72921233 3.36046538
H 1.76111525 1.46100610 4.12429540
H 4.30086296 4.80745784 1.09661225
H 5.18501164 3.53983500 1.09894721
H 6.04765705 5.07692460 4.11081871
H 6.03526563 5.08286576 2.56530274
H 5.67102206 4.79212633 6.36660707
H 5.21894013 3.53447970 5.59004104
H 2.17294664 1.18791530 6.36527979
H 3.51127100 1.17720498 5.59007147
H 3.53983111 5.11575612 5.57658435
H 2.64799777 6.38124676 5.57536512
H 4.29157323 1.43237957 1.07414023
H 5.62911799 1.43318917 0.29594327
H 5.66958220 1.42048295 6.34478746
H 5.66561281 1.42626839 4.79827952
H 1.76271402 4.83731759 7.01886954
H 0.42577116 4.83552878 7.79837486
H 1.78656695 4.83546954 2.56705809
H 1.79855890 4.84135566 4.11269775
H 2.16881417 5.10932179 0.30516805
H 2.60755423 6.37413715 1.07775316
H 2.13357011 1.17809068 0.32650905
H 2.14045160 1.18721003 1.87283387
H 6.03851692 1.15310176 2.54024919
H 6.49358577 14.49471639 3.30766491
H 6.04944530 1.16638910 8.60763466
H 7.39428361 1.18476655 7.84414413
H 6.04674830 5.09905130 8.61244712
H 6.48128853 6.36397148 7.83708403
H 1.32672040 2.72786316 7.82753455
H 1.76728962 1.46869506 8.60994780
H 8.17478821 1.47218125 3.33959352
H 9.07040995 2.73237934 3.34207483
H 13.43477720 4.80362145 1.89327316
H 12.98613113 3.54623297 1.11343025
H 13.83151484 5.07830898 4.14316155
H 15.17142668 5.08234284 3.36944393
H 12.05602958 4.79749390 5.59129806
H 12.94422462 3.53181863 5.59628111
H 9.93814202 1.18340617 4.80118245
H 11.27668983 1.17873297 5.57549009
H 9.92914258 5.11708303 4.78454829
H 10.37304609 6.37329889 5.56704966
H 12.05531452 1.44443602 1.07812205
H 13.39239363 1.43609204 0.30052467
H 13.42358185 1.43128358 4.81268946
H 13.42746109 1.42574803 6.35953461
H 8.18996265 4.82942584 7.80329483
H 9.52733349 4.83348856 7.02692609
H 8.19520644 4.84692501 3.31195092
H 9.53437181 4.84078593 2.53595290
H 11.29803182 5.09756926 1.06895035
H 9.96330704 5.09249518 0.28743984
H 9.92043030 1.16270692 1.88879762
H 10.36697549 14.50143578 1.11743426
H 13.80944066 1.18548526 2.54750052
H 15.15004713 1.18689262 3.31814009
H 15.16922001 1.15744142 7.82025050
H 14.28800816 14.48972748 7.81940470
H 13.79621396 5.07532758 7.06012131
H 13.80639859 5.08359369 8.60500130
H 9.53347026 1.45949817 7.04608498
H 9.09618072 2.72751624 7.81178924
H 0.40275126 1.47136525 12.31340143
H 1.30353273 2.72719078 12.31157145
H 5.66463495 4.78425563 10.85461311
H 5.21508454 3.52520423 10.07718954
H 6.48827351 6.36152149 12.31941748
H 6.05294412 5.10130631 13.09705947
H 5.65189194 4.83342574 15.34593731
H 4.31346458 4.83887701 14.57021099
H 3.51325326 1.18506049 14.53454874
H 2.17463110 1.18031822 13.76169312
H 2.17432767 5.11868662 13.75889179
H 2.61142442 6.37768909 14.53977499
H 5.62027195 1.41209928 10.85009070
H 4.28214311 1.42252105 10.07523525
H 5.21298929 2.72664291 14.56477874
H 5.65225736 1.46007282 15.33375749
H 1.79045875 4.79560658 16.00236056
H 1.34077993 3.53613264 16.77811150
H 1.76613792 4.83184500 11.51263900
H 0.42920575 4.84282737 12.29130716
H 3.52695643 5.07107210 10.04539706
H 2.19345605 5.08351739 9.26168510
H 2.14223744 1.15114254 10.85556750
H 2.58635327 14.49325659 10.07603024
H 6.05028662 1.17593671 13.09574319
H 7.38728740 1.18307762 12.32349913
H 6.51344559 14.49606821 16.78353957
H 7.39960239 1.15876041 16.78979324
H 7.41135405 5.08861479 16.81485010
H 6.07421320 5.08644478 17.59413231
H 0.40691482 1.42881384 16.77874732
H 1.74944753 1.42218010 16.01110272
H 9.52008214 8.73213917 13.10561993
H 8.18161517 8.72857582 12.32865251
H 12.06400873 12.11215110 10.06109228
H 12.95126388 10.84688370 10.06918184
H 13.83581690 12.39211881 11.51090063
H 15.17411801 12.39338531 12.28569687
H 13.41034239 12.14762468 13.75201480
H 12.07218324 12.14420162 14.52972119
H 11.28684377 8.49458037 14.56373538
H 9.95209167 8.48882841 15.34426164
H 9.91134766 12.38988228 13.77522672
H 9.91610850 12.39240822 15.32196390
H 13.44150436 8.74231701 10.84469803
H 13.43211091 8.74309400 9.29737136
H 12.98332807 10.03930428 14.56146810
H 13.42524754 8.77860452 15.34153172
H 9.55122681 12.11445693 17.58121935
H 9.10492362 10.85013820 16.81237946
H 9.09510543 10.83690145 12.29079520
H 9.54552988 12.09577509 11.51412701
H 10.36439951 13.67021798 10.05146223
H 9.92009089 12.41131390 9.27216911
H 11.28895519 8.47928888 10.09301093
H 9.94709410 8.47135332 10.86274860
H 14.25069181 7.19478232 12.33293010
H 13.80795830 8.46412193 13.09641392
H 13.79887065 8.45457189 17.58626338
H 14.25852153 7.20386628 16.80533879
H 13.83812622 12.38451266 15.99730888
H 15.17939006 12.38838996 16.77019651
H 8.19002565 8.74279071 16.80487229
H 9.52355568 8.73715474 17.58735574
H 1.75758152 8.73118302 11.52392566
H 0.41475869 8.73515947 12.29261234
H 5.66140324 12.13227680 9.28324909
H 5.67019189 12.13171337 10.82881871
H 6.51664110 13.67032098 12.29719839
H 7.41164254 12.40812278 12.29550347
H 5.68117189 12.13576062 15.31164239
H 5.67794296 12.13391389 13.76371636
H 2.13470738 8.48712398 15.33429338
H 2.13975067 8.48589169 13.78713318
H 2.63782423 13.66983639 14.54946103
H 3.53954486 12.41485442 14.54552854
H 5.20338051 10.02422859 10.04346794
H 5.64943105 8.76241891 9.27220856
H 4.27634611 8.77218624 14.55550251
H 5.17943251 10.02734426 14.54695617
H 1.80385001 12.13078778 16.02135361
H 1.79191648 12.13192564 17.56824173
H 1.33216917 10.83647620 12.32655435
H 1.78200635 12.09860138 13.09819421
H 2.17725034 12.37648999 10.85022890
H 3.51511864 12.38750052 10.07565822
H 2.63969033 7.18685319 10.06952365
H 3.51722366 8.45829850 10.06654176
H 6.01670153 8.47897378 13.08062966
H 6.02493593 8.47607960 11.53562254
H 6.49285744 7.19136253 16.76523573
H 6.04251782 8.45532486 15.99626684
H 6.06709284 12.38474556 17.57541624
H 7.40966355 12.38590422 16.80982802
H 0.40000580 8.77180837 16.80275443
H 1.29746075 10.03187602 16.79717697
