384

O 9.08942660 1.76508991 12.32364574
O 12.96590872 4.49610376 10.04867882
O 14.28197600 5.39741442 12.27978498
O 12.96954627 4.50320327 14.52121964
O 10.39707920 0.85308465 14.54978642
O 10.38022400 5.41806590 14.57278560
O 12.96067225 1.75821875 10.05710745
O 12.98725665 1.76136630 14.54124392
O 9.08536723 4.51265289 16.82242401
O 9.10664800 4.50613455 12.31130923
O 10.37608785 5.42174899 10.06181829
O 10.36909020 0.86051582 10.07639256
O 14.25502380 0.84523782 12.29634451
O 14.26849014 0.85103739 16.79512314
O 14.24510008 5.42455442 16.75813894
O 9.09686756 1.76524937 16.78034085
O 9.07063957 9.09056810 3.36017855
O 12.98801948 11.76741277 1.07546929
O 14.26347818 12.68151198 3.33226622
O 12.96257484 11.80307983 5.58993201
O 10.40399807 8.16378779 5.56693908
O 10.37702308 12.73446350 5.57479565
O 12.97124109 9.02231827 1.11190891
O 12.99427034 9.05981791 5.58645448
O 9.09644170 11.82325922 7.82394184
O 9.08678298 11.82942804 3.33165529
O 10.38979925 12.70686917 1.07051314
O 10.36133158 8.16118341 1.12216416
O 14.27446485 8.12875037 3.35641168
O 14.26261461 8.15182742 7.83703556
O 14.26807148 12.71425721 7.82359509
O 9.08275710 9.08261527 7.79306031
O 1.32947585 9.06426812 3.34509725
O 5.23132263 11.78945703 1.10707946
O 6.49192270 12.71614774 3.36156186
O 5.19176538 11.81663776 5.60164714
O 2.61085304 8.15277371 5.58474434
O 2.60232748 12.72767228 5.58781124
O 5.19659307 9.04610227 1.11303348
O 5.20365662 9.07020285 5.58304657
O 1.32734676 11.80439898 7.82961528
O 1.33523069 11.81072351 3.32749839
O 2.63671068 12.71491833 1.07930028
O 2.60734192 8.13753016 1.10030660
O 6.50170400 8.13797978 3.35164651
O 6.50436213 8.15377855 7.82374499
O 6.49508236 12.69860338 7.84877525
O 1.30952430 9.05962297 7.81437262
O 1.30947018 1.71531094 3.33105788
O 5.20928353 4.52557278 1.07996262
O 6.49158866 5.39923787 3.33475152
O 5.21446898 4.49032918 5.58072045
O 2.60000191 0.86507511 5.59423095
O 2.62576128 5.40463312 5.56646419
O 5.21827835 1.78305884 1.08111323
O 5.18628943 1.75086851 5.57083791
O 1.33629860 4.53023895 7.82800364
O 1.31804983 4.46047023 3.33422342
O 2.60265745 5.39035766 1.09235324
O 2.63598914 0.85187236 1.08628020
O 6.48258122 0.85802472 3.33207164
O 6.48171343 0.83381756 7.81734220
O 6.51110857 5.40897224 7.81659019
O 1.30891255 1.78399994 7.82745946
O 9.07571173 1.74975602 3.32989589
O 12.97298431 4.50468904 1.06430065
O 14.26227058 5.38411761 3.31775563
O 12.97733685 4.52512189 5.57484411
O 10.39040049 0.86953812 5.57279662
O 10.38109718 5.42635594 5.56525716
O 12.95541991 1.75771309 1.08696745
O 12.97723537 1.77513663 5.56807229
O 9.10305059 4.50178392 7.80951778
O 9.07320997 4.48660445 3.34972323
O 10.38594637 5.41921914 1.12502826
O 10.36560019 0.84789025 1.08780828
O 14.24450796 0.82446492 3.31926158
O 14.26469930 0.86115296 7.81176529
O 14.27187558 5.41357225 7.82505211
O 9.08512778 1.75596203 7.82901318
O 1.30191349 1.75331295 12.30295751
O 5.22883399 4.48594301 10.06658781
O 6.50936178 5.41160194 12.30120871
O 5.20184388 4.52964050 14.54353030
O 2.62201897 0.88573559 14.55384437
O 2.61097019 5.41908880 14.54255552
O 5.21361166 1.74167500 10.06552304
O 5.21814229 1.78635145 14.56397362
O 1.29994213 4.51707326 16.78081205
O 1.33283384 4.49040109 12.29607774
O 2.64027306 5.41909420 10.07736634
O 2.61044275 0.85997202 10.06510012
O 6.50268987 0.85960551 12.31887881
O 6.51364242 0.85800271 16.78790833
O 6.49334490 5.45009955 16.79289441
O 1.32739328 1.77844117 16.80388385
O 9.06109072 9.06596256 12.31329748
O 12.96023316 11.79077628 10.06149524
O 14.24054526 12.70997757 12.31145604
O 12.95633245 11.78662646 14.54691859
O 10.37540092 8.16172292 14.54808759
O 10.38473435 12.71478605 14.54432450
O 12.95791654 9.05025391 10.06769721
O 12.97428790 9.04727597 14.53860724
O 9.10572512 11.78769640 16.78687622
O 9.08380608 11.80753628 12.31011185
O 10.38621554 12.72495320 10.07624304
O 10.34675598 8.16935543 10.05352720
O 14.28616222 8.14285086 12.30522809
O 14.26754627 8.16303310 16.79544965
O 14.25743332 12.69750853 16.77935901
O 9.08902541 9.04565036 16.80141817
O 1.33816609 9.07484783 12.29315321
O 5.20550496 11.77450949 10.08957380
O 6.49812071 12.71786272 12.31025578
O 5.20679931 11.83110832 14.56767651
O 2.60129742 8.16028294 14.55018751
O 2.61605844 12.74618601 14.54702578
O 5.19148124 9.03224813 10.07487010
O 5.18168965 9.08890909 14.56080540
O 1.32698163 11.81494986 16.78681328
O 1.31324302 11.82199834 12.31197689
O 2.62566591 12.71425387 10.07448730
O 2.60684783 8.15063114 10.04444903
O 6.47469159 8.15664577 12.32762234
O 6.48692818 8.18997254 16.79472258
O 6.51446527 12.71345615 16.81613066
O 1.32355889 9.06978929 16.80167721
H 9.52662062 1.43060873 13.11402202
H 8.18225923 1.44189915 12.34584069
H 12.93250635 3.53329145 10.04914072
H 12.05466147 4.80753790 10.05000960
H 13.80646637 5.07500932 11.50666896
H 13.80467055 5.07542026 13.05179496
H 13.40645315 4.84315324 15.30994000
H 12.06473951 4.83125542 14.55070082
H 10.41779927 14.49201300 14.54916469
H 11.31300576 1.15080484 14.54321256
H 9.92457079 5.12859144 15.36988596
H 10.36644393 6.38097809 14.57887079
H 12.05653390 1.42678019 10.07971185
H 13.39480281 1.43036264 10.85202277
H 13.44169981 1.47000077 15.33855788
H 12.99292897 2.72470450 14.55280705
H 9.51880886 4.83805315 17.61840347
H 8.18376976 4.84948897 16.83745141
H 9.11386648 3.54323221 12.33301105
H 9.55234164 4.80385352 13.11107244
H 9.92704936 5.12407042 10.86020871
H 10.35342621 6.38433157 10.07324317
H 10.36555859 14.49952488 10.09936573
H 9.91672959 1.15857783 10.87319091
H 14.23378607 14.48436930 12.31683542
H 13.80306540 1.15024092 13.09059219
H 14.25391954 14.49056491 16.80708930
H 13.80380753 1.14400371 17.58601177
H 13.79645281 5.12024057 17.55459010
H 14.24250984 6.38732721 16.79043042
H 9.56222953 1.47268530 15.98930199
H 9.10388365 2.72801351 16.77116216
H 9.08728284 10.05335331 3.37558603
H 9.54845963 8.78922104 4.14040821
H 12.99068295 10.80483458 1.10606609
H 13.43414551 12.06869307 1.87389414
H 13.80647987 12.38629021 4.12679795
H 14.24027577 13.64409866 3.34620303
H 13.39899061 12.14021369 6.37952313
H 12.05837362 12.13387578 5.60624169
H 11.32373634 8.44910071 5.57238884
H 10.41094651 7.20035854 5.56114403
H 10.37094812 13.69731713 5.54978396
H 9.92240584 12.43542349 4.78009876
H 12.06143947 8.70775579 1.13401308
H 13.40276776 8.68968255 1.90601480
H 12.99070721 10.02263222 5.60852317
H 13.44154139 8.76354765 6.38659955
H 9.57050263 12.14847800 8.59657214
H 9.55487651 12.16500372 7.04887822
H 8.18131879 12.15748964 3.31604557
H 9.51787385 12.14667431 2.53133180
H 11.29188113 12.37194756 1.06030170
H 9.96098715 12.36637588 0.27731656
H 9.89073518 8.50857280 1.88711025
H 9.89930150 8.48095106 0.33995298
H 13.84506818 8.46824380 4.14935154
H 15.17643375 8.46491755 3.36703346
H 15.17816074 8.45167017 7.83062301
H 14.28587637 7.18867524 7.83065880
H 15.18377133 12.41580531 7.82691360
H 14.29238680 13.67698323 7.82235726
H 9.55145876 8.78078096 7.00774213
H 9.10149213 10.04560103 7.77842827
H 1.34528282 10.02679685 3.32084291
H 1.77780729 8.76017994 2.54886542
H 5.67342290 12.08487143 1.90997331
H 5.22628186 10.82663716 1.12969644
H 6.46816162 13.67875240 3.36918116
H 6.03758190 12.42126837 4.15800103
H 4.28907666 12.15166914 5.61951796
H 5.62526551 12.13013178 6.40239001
H 2.15791363 8.45142619 4.78857829
H 2.60475443 7.19016474 5.56062623
H 2.58735020 13.69058868 5.56644623
H 2.15691985 12.42622587 4.78870749
H 5.63567683 8.71130767 1.90202777
H 4.29300926 8.71336224 1.13230698
H 5.17218673 10.03251290 5.58811320
H 4.29080959 8.76389807 5.58638009
H 1.80057669 12.13020872 8.60239000
H 1.79050672 12.14073044 7.05478918
H 1.76898118 12.14258261 2.53450744
H 0.42583770 12.12672707 3.30430575
H 2.66719008 13.67767874 1.07910087
H 3.54933060 12.40851824 1.08826275
H 2.58626041 7.17490738 1.08099462
H 2.15539036 8.44157865 0.30607845
H 7.40264585 8.47852011 3.37028346
H 6.06372135 8.47486522 4.14057095
H 6.06449129 8.48360828 7.03323487
H 7.40518378 8.49412958 7.79843466
H 7.40418516 12.38086807 7.85941132
H 6.06981561 12.35963798 8.64339294
H 1.76967323 8.76378178 7.02129551
H 1.32722573 10.02254896 7.80378158
H 0.40652781 1.38174872 3.30389310
H 1.75248140 1.39463970 2.53860588
H 5.63958932 4.86885146 0.28906554
H 4.29932085 4.84001603 1.06182456
H 6.03318816 5.11254553 2.53745550
H 6.48962880 6.36242851 3.32337552
H 5.68507536 4.82243340 6.35268376
H 5.68158156 4.82215812 4.80635330
H 3.50701545 1.18915133 5.56408074
H 2.16458967 1.17993169 4.79493336
H 3.53059399 5.07524811 5.54836185
H 2.18625908 5.05671809 4.78363640
H 5.67641825 1.48119383 0.28961347
H 5.22790192 2.74594961 1.05896191
H 5.64618537 1.45847850 4.77647082
H 5.21089321 2.71388651 5.56407214
H 1.81489410 4.85152120 8.59914947
H 1.80314878 4.85537756 7.05100275
H 1.28821783 3.49790142 3.33388656
H 0.40445681 4.76520441 3.33186768
H 2.13017301 5.06511646 0.31899227
H 2.13946151 5.04942122 1.86487544
H 2.19773491 1.18968628 0.29790697
H 3.53572255 1.19487102 1.07118875
H 6.05754947 1.19143408 2.53468361
H 7.39222880 1.17412712 3.31471880
H 6.02710564 1.12962351 7.02193775
H 6.47421938 14.47285402 7.80329504
H 6.53049092 6.37200546 7.82089955
H 7.42770638 5.11346720 7.81530754
H 1.76821127 1.47870298 7.03731966
H 1.33196568 2.74623424 7.80403955
H 9.55126541 1.42940128 4.10346151
H 9.54270359 1.41754230 2.55568472
H 12.07047036 4.83912829 1.10056639
H 13.41329059 4.82057778 1.86090453
H 13.80673194 5.09346226 4.11535878
H 14.26629241 6.34684636 3.34456071
H 13.41093053 4.85464931 6.36917669
H 12.07070272 4.84909466 5.59341313
H 9.95280589 1.19240517 6.36723708
H 11.29375721 1.20336603 5.59561853
H 9.91771124 5.09313501 6.34094545
H 9.91075140 5.08593944 4.79639270
H 12.94031865 2.72062148 1.07692607
H 12.03798636 1.46475653 1.08389170
H 13.43480307 1.47401094 6.36062465
H 12.99259707 2.73760954 5.58918584
H 9.55420705 4.80143305 8.60589525
H 9.10745271 3.53907704 7.83409924
H 9.05750882 3.52343749 3.34112588
H 8.15597287 4.78050921 3.34115823
H 9.92608253 5.11228986 1.91360419
H 10.36426298 6.38188958 1.14703975
H 10.36577686 14.48722033 1.05885173
H 9.91382244 1.14898403 0.29215678
H 13.79007080 1.17066458 4.09437123
H 13.77394603 1.16177058 2.54945670
H 13.82572611 1.18206279 8.60643449
H 15.16625852 1.19992420 7.83542169
H 13.83467342 5.07649658 8.61448115
H 15.17773377 5.08756951 7.84532729
H 8.18123074 1.42598562 7.84036766
H 9.51180301 1.42266183 8.62596125
H 1.74111873 1.43670130 13.09909097
H 0.40015890 1.41443144 12.32541189
H 5.23456943 3.52314245 10.04068626
H 5.67724236 4.78890504 9.27002261
H 7.41669476 5.08997514 12.28494684
H 6.08116517 5.07452488 11.50667245
H 5.66707763 4.81858949 13.75104089
H 5.22359061 3.56667451 14.53913315
H 3.52552361 1.21835435 14.57269890
H 2.18872509 1.21077211 15.34996493
H 2.18331646 5.07704989 13.75039824
H 3.51932753 5.09825410 14.52658364
H 5.63971703 1.40739329 9.26856940
H 4.30418432 1.42554513 10.04737888
H 5.69053792 1.44793584 15.33245356
H 5.67854755 1.45083649 13.78760633
H 0.39776567 4.85259410 16.75130721
H 1.74411738 4.84120639 15.99008414
H 1.29932077 3.52755606 12.29995351
H 0.41866894 4.79439950 12.29152774
H 3.54274418 5.08459450 10.09812654
H 2.19810728 5.07954531 10.86327035
H 2.13960206 1.19346569 9.29428719
H 2.13961690 1.18573014 10.83967141
H 6.04822075 1.15901046 11.52396282
H 6.48803680 14.49904557 12.29416267
H 7.43058555 1.15323055 16.78788911
H 6.53107320 14.49732075 16.80479122
H 6.47964021 6.41303557 16.77066817
H 6.04212866 5.14814094 15.99763897
H 0.41716586 1.46485884 16.80210597
H 1.28811604 2.74092847 16.79608132
H 9.48502135 8.74172231 11.51198887
H 8.15678387 8.73396097 12.30354725
H 12.97361038 10.82794016 10.03533898
H 13.42294301 12.09748847 9.27473253
H 13.77092200 12.37138639 13.08120169
H 13.77937501 12.37742634 11.53433467
H 12.97729558 10.82375308 14.56591892
H 13.41949536 12.08902228 15.33595191
H 11.28185730 8.48569069 14.52296343
H 9.93680300 8.49221634 13.75719188
H 9.94675744 12.39104810 13.74978732
H 11.28624081 12.37545485 14.52492471
H 13.43179943 8.72626063 10.84055103
H 13.43069412 8.71662212 9.29722529
H 13.43831851 8.72183529 15.31725335
H 13.45323501 8.71645746 13.77120053
H 9.55258545 12.08840279 15.98811195
H 9.11248841 10.82475744 16.76501649
H 8.17089392 12.11561569 12.30937969
H 9.04811150 10.84509922 12.31284285
H 9.94521657 12.38622527 10.86257948
H 11.28851829 12.38844088 10.09509103
H 11.25418058 8.49053132 10.04207111
H 9.92394988 8.50295863 9.25511937
H 15.19877415 8.44982559 12.29856021
H 14.31351570 7.18033498 12.29418001
H 15.17097413 8.49618100 16.81997258
H 13.83077350 8.47879328 17.59355027
H 15.16586287 12.37898887 16.79971339
H 13.82798586 12.35625309 17.57158700
H 8.17897166 8.73132821 16.77338008
H 9.52461073 8.71555900 16.00855584
H 1.79127966 8.78370885 11.49495495
H 1.34098577 10.03768908 12.28209391
H 4.29372524 12.08468536 10.07991227
H 5.17313748 10.81184047 10.08178093
H 6.03043341 12.39985316 13.08963618
H 6.02638238 12.37385821 11.54379351
H 5.66709349 12.12166391 15.36204210
H 5.20795682 10.86821601 14.58455717
H 2.59240938 7.19722308 14.53019880
H 2.15313037 8.45895186 13.75175510
H 3.53072873 12.44458253 14.55095046
H 2.64289464 13.70895764 14.54752731
H 5.63335465 8.71521394 9.28036381
H 4.28498728 8.70705593 10.03901420
H 4.27929573 8.75290915 14.53906412
H 5.61989932 8.75140683 13.77225584
H 1.79009658 12.15492175 16.01382734
H 1.80234712 12.14275219 17.55762633
H 0.40510724 12.14067568 12.33273269
H 1.74767590 12.15855944 13.10285171
H 2.15568776 12.42444502 10.86374475
H 2.61389391 13.67720989 10.08756039
H 2.59625998 7.18726047 10.04091795
H 2.14401149 8.44175443 9.25145276
H 6.01843477 8.44897173 11.53079850
H 6.47516606 7.19380767 12.30505302
H 6.02058552 8.50435013 17.57673437
H 6.00967001 8.52638774 16.02871825
H 7.41634614 12.37691212 16.82553923
H 6.08540417 12.38025947 17.61184401
H 1.34068224 10.03242948 16.77841035
H 1.77189442 8.76745024 16.00468639
