384

O 9.08522693 1.76580200 12.31020836
O 12.97532311 4.50346265 10.05851091
O 14.26974187 5.41996711 12.29260100
O 12.96857355 4.50424806 14.53776140
O 10.37150072 0.84173157 14.55122433
O 10.37449697 5.40613922 14.54260437
O 12.96090418 1.76288676 10.07798216
O 12.95849760 1.76666201 14.55576964
O 9.08902511 4.49368491 16.78962646
O 9.09965457 4.50439759 12.29548557
O 10.39349027 5.41989478 10.05364226
O 10.36866847 0.85865469 10.06819104
O 14.25839278 0.85636592 12.31870803
O 14.25994548 0.85680283 16.79315153
O 14.25959761 5.41601103 16.77648435
O 9.07759084 1.75254104 16.79418699
O 9.07798059 9.06458145 3.31856920
O 12.97810356 11.80299554 1.08771678
O 14.26337812 12.70828053 3.33446398
O 12.97966783 11.80811702 5.58098741
O 10.38342073 8.15698490 5.55585472
O 10.38907266 12.71770186 5.58136536
O 12.95697774 9.06230212 1.09386655
O 12.97050020 9.06811808 5.57231271
O 9.10575662 11.79284041 7.82054544
O 9.08322734 11.81245504 3.34064113
O 10.39289029 12.71474642 1.09966726
O 10.37756350 8.14194754 1.08666853
O 14.26020208 8.16538858 3.33081003
O 14.25688538 8.15094223 7.80855779
O 14.26361387 12.72591083 7.82764691
O 9.09463137 9.04932387 7.80463278
O 1.31721101 9.06817165 3.33661768
O 5.19103355 11.79471107 1.10960946
O 6.48975388 12.71224069 3.35412746
O 5.20815163 11.80361039 5.59648409
O 2.60651783 8.15275909 5.57638261
O 2.61910051 12.70830768 5.58679941
O 5.20436799 9.05615610 1.09308679
O 5.19026498 9.06030227 5.57820888
O 1.32287339 11.80335114 7.83688278
O 1.32265074 11.80907447 3.33528681
O 2.60975300 12.72521708 1.09459717
O 2.61207011 8.14644820 1.09498872
O 6.48620422 8.15451900 3.33963399
O 6.49435259 8.15234529 7.82162423
O 6.52031490 12.71211030 7.83234533
O 1.31390632 9.06212011 7.82177922
O 1.30732311 1.75478883 3.35162898
O 5.20803584 4.50099105 1.09420469
O 6.49998176 5.41338101 3.34726639
O 5.19683379 4.49332707 5.59043035
O 2.60274065 0.84981532 5.59217261
O 2.60828651 5.41165121 5.57066246
O 5.18966586 1.76112852 1.10258849
O 5.18894605 1.75124618 5.59348670
O 1.33083155 4.51195026 7.82483827
O 1.31692851 4.49599245 3.32005043
O 2.61408844 5.40348080 1.08073283
O 2.59691724 0.86064628 1.09840189
O 6.48657749 0.85166549 3.34518993
O 6.49562472 0.85063341 7.82441257
O 6.49965933 5.41157932 7.82330678
O 1.30502527 1.77046346 7.82983599
O 9.07009927 1.75794444 3.32777229
O 12.96651440 4.50174558 1.07525595
O 14.25565695 5.41828104 3.31630592
O 12.97523304 4.50520693 5.57390043
O 10.36804022 0.85458698 5.57378076
O 10.39044721 5.41218919 5.56103746
O 12.96032621 1.76420779 1.09077668
O 12.95497982 1.76624556 5.58381578
O 9.09708815 4.51055450 7.81128746
O 9.08491897 4.50075809 3.32640513
O 10.37935719 5.39919309 1.08772890
O 10.37652718 0.85623309 1.09486421
O 14.24474009 0.85047702 3.34728844
O 14.25560036 0.86682952 7.82946178
O 14.26833536 5.40830947 7.81633929
O 9.08799452 1.76937493 7.82389665
O 1.31262373 1.76205836 12.31519175
O 5.21173597 4.50696105 10.06919344
O 6.51012642 5.41377311 12.31355086
O 5.21403343 4.49742089 14.55736204
O 2.60939331 0.85299901 14.55642734
O 2.62544286 5.40999030 14.53715943
O 5.20012636 1.76308593 10.07310551
O 5.19692930 1.75494223 14.56155354
O 1.32013324 4.50668409 16.77578220
O 1.31713338 4.51217100 12.30510450
O 2.62786772 5.42644405 10.06599761
O 2.61635739 0.85154907 10.07109806
O 6.49629889 0.85799766 12.31980643
O 6.49226377 0.84069678 16.80370715
O 6.50445237 5.40610884 16.79955020
O 1.31820630 1.76143931 16.79334525
O 9.10053825 9.06110291 12.30635579
O 12.97371879 11.81565619 10.06621363
O 14.27020089 12.71822566 12.31408407
O 12.97204869 11.80088977 14.54296069
O 10.39344505 8.14377130 14.54794026
O 10.37516296 12.70275566 14.56651346
O 12.97490519 9.07199803 10.05832416
O 12.97818955 9.06505845 14.54218622
O 9.08402380 11.79684218 16.81135412
O 9.10060516 11.80686309 12.31414214
O 10.38157603 12.71760865 10.06853075
O 10.37991734 8.15996406 10.04975643
O 14.27525562 8.16030207 12.29995230
O 14.26480385 8.15737619 16.79489338
O 14.27513992 12.71463695 16.78772004
O 9.09324363 9.05378502 16.78792832
O 1.32882468 9.07791476 12.30810121
O 5.22025145 11.80780192 10.07669121
O 6.50605301 12.71461662 12.32357560
O 5.20596223 11.80315507 14.55706507
O 2.60667982 8.15797110 14.54631192
O 2.62536590 12.71852121 14.54815586
O 5.21608511 9.06464542 10.06781837
O 5.20401150 9.06536380 14.55012532
O 1.32736486 11.79486361 16.78895153
O 1.32474211 11.82036400 12.30395202
O 2.62766922 12.71233952 10.06765547
O 2.62254039 8.16846260 10.06604859
O 6.50853589 8.16073352 12.31447894
O 6.50108717 8.15414534 16.79364912
O 6.49413686 12.69373775 16.80798641
O 1.32155186 9.05174041 16.79386960
H 9.53872247 1.46808736 11.51414456
H 9.09830152 2.72896312 12.29173254
H 12.98196552 3.54043365 10.08509775
H 13.43666534 4.80520308 10.84854863
H 15.17589059 5.09365958 12.31981399
H 13.83199688 5.09270047 13.08530692
H 12.05334934 4.80372201 14.53451266
H 12.94466479 3.54123363 14.53974664
H 11.27553581 1.17317243 14.53697073
H 9.94087656 1.17479723 13.75656229
H 9.92256164 5.10793221 15.33891032
H 10.37237798 6.36911266 14.56301876
H 13.43288860 1.43503469 9.30511660
H 13.42670880 1.42771917 10.85156278
H 13.42830894 1.43852735 15.32999391
H 13.43134220 1.43540621 13.78467796
H 9.54730724 4.78536037 17.58486568
H 9.09266125 3.53067159 16.80339148
H 9.52861198 4.83197353 13.09347939
H 8.19492631 4.83427680 12.31300422
H 9.96034993 5.08596124 10.84640108
H 11.29735612 5.08704939 10.07075014
H 9.93867823 1.18870987 9.27192481
H 11.27518422 1.18315519 10.05069786
H 15.17398825 1.15527901 12.31690595
H 14.28140927 14.49539722 12.31933380
H 14.28442185 14.49604601 16.79317210
H 15.17532680 1.15608901 16.79426248
H 13.78936600 5.07994138 17.54685882
H 13.79197246 5.08727843 16.00098749
H 9.50855959 1.42373899 15.99826671
H 8.17360482 1.42009276 16.77953075
H 9.53535953 8.76086081 4.11015682
H 9.09104732 10.02709251 3.34483960
H 12.07446465 12.13617522 1.07072301
H 13.41196935 12.13237549 0.29368458
H 15.17092609 12.38669631 3.31548137
H 13.83240844 12.37698988 2.53937370
H 13.43381484 12.10159179 4.78394762
H 12.98708529 10.84501270 5.56412022
H 9.92511646 8.44802439 6.35167490
H 10.37609093 7.19391644 5.57066121
H 9.95715964 12.38288149 6.37453940
H 11.29495515 12.39092169 5.59962880
H 13.42094693 8.77065452 1.88608278
H 12.97226399 10.02537103 1.10351824
H 12.06495772 8.73978075 5.58413148
H 13.39839738 8.73131428 6.36690767
H 9.55707073 12.09088374 8.61751561
H 9.11600876 10.82980203 7.83500308
H 9.55643404 12.13607356 4.11442999
H 9.55681121 12.13863608 2.56810925
H 9.92829437 12.40932828 0.31311247
H 10.37532459 13.67742267 1.07623998
H 11.28108567 8.47562376 1.11235879
H 9.93684924 8.47974807 1.87383865
H 13.82584304 8.49228005 4.12610293
H 15.16521208 8.49378903 3.35180527
H 13.80791530 8.45562934 8.60417345
H 14.25005467 7.18812733 7.83577075
H 13.81384453 12.42707012 7.03011777
H 14.25500791 13.68888078 7.80748485
H 8.18716958 8.72797943 7.82692089
H 9.52576343 8.71907692 8.60049417
H 1.33145483 10.03099334 3.31188317
H 1.77370231 8.76265523 2.54559878
H 4.28943682 12.13229633 1.12793056
H 5.62942894 12.12380743 1.90120278
H 6.51203349 13.67532115 3.34558028
H 7.40584904 12.41486655 3.34309849
H 5.68329882 12.13111358 6.36737148
H 5.67232611 12.13910255 4.82172492
H 3.51124443 8.48363289 5.55875925
H 2.17460380 8.49056279 4.78439524
H 2.18020929 12.37794070 6.37747272
H 3.52372907 12.37841095 5.61250964
H 5.66176669 8.76672265 0.29656238
H 5.20475007 10.01932277 1.08067110
H 5.20982870 10.02332732 5.56905923
H 5.65239210 8.76738889 4.78535590
H 1.29259895 10.84063893 7.82849548
H 0.41021732 12.11028398 7.82842841
H 1.78929317 12.14938671 2.56465542
H 1.79157470 12.13185663 4.11192028
H 2.59248402 13.68796030 1.07001420
H 2.15817267 12.41754121 0.30190596
H 2.63551941 7.18356860 1.09666443
H 3.52777131 8.44471943 1.09345864
H 7.39137561 8.48235907 3.31466706
H 6.05259847 8.47565807 2.54157111
H 6.48240290 7.18939411 7.79997653
H 6.03749482 8.45319142 7.02906070
H 7.42201250 12.37432495 7.85169382
H 6.08301540 12.38477427 8.62552453
H 1.75285962 8.73571337 7.02900223
H 0.41247444 8.72434920 7.79876974
H 0.40353945 1.42306314 3.36768743
H 1.74060839 1.42551638 4.14637571
H 5.67616871 4.83012171 1.86857365
H 5.67888939 4.83369070 0.32236490
H 6.03751972 5.10939323 4.13498803
H 6.48053773 6.37617563 3.36615399
H 4.28144329 4.79178587 5.58117326
H 5.17597511 3.53040601 5.59016600
H 3.51939724 1.14642464 5.59312463
H 2.62685914 14.48892158 5.59482595
H 2.15075996 5.11202340 4.77829949
H 2.60137880 6.37471841 5.54761901
H 5.64459179 1.45362787 0.31155888
H 5.21003680 2.72385331 1.07717288
H 5.66012410 1.42768948 4.81850552
H 5.66380781 1.42328129 6.36505828
H 1.80467515 4.84612477 8.59350815
H 1.79050072 4.84351804 7.04609901
H 1.28883263 3.53323918 3.33234188
H 0.40322841 4.79946765 3.31820162
H 3.51881678 5.07416911 1.10018034
H 2.17883044 5.06808301 1.87172622
H 2.16357196 1.17853488 1.89748503
H 3.50217371 1.18855199 1.11991999
H 6.04775802 1.18003886 2.55326993
H 7.38968223 1.18628630 3.31813278
H 6.52889438 14.49001626 7.83278603
H 7.40791753 1.15866472 7.83016575
H 6.03013545 5.07320843 7.05325051
H 6.03175075 5.08169616 8.59810446
H 1.76871317 1.46806877 7.04169914
H 1.32910312 2.73333679 7.81301563
H 9.53493006 1.46286535 2.53738106
H 9.08696595 2.72086091 3.31504676
H 12.06035837 4.82804132 1.10008620
H 13.40177650 4.83622443 1.86675296
H 13.80683937 5.11969594 4.11434934
H 14.25040465 6.38110646 3.33976193
H 12.98144249 3.54205860 5.58964175
H 13.43763543 4.79861654 6.36618175
H 10.35996083 14.49353265 5.56380643
H 9.90673301 1.14625652 4.78054764
H 9.95759935 5.08450869 6.35625803
H 11.29600266 5.08398304 5.58262056
H 13.42324135 1.46535542 0.30105428
H 12.97489717 2.72725396 1.07317885
H 12.04913106 1.43931533 5.56420950
H 13.38630688 1.43057028 4.79058286
H 9.53275810 4.84194204 8.60361529
H 8.19235386 4.83951474 7.83161365
H 9.52645767 4.82683918 4.11781133
H 8.18073509 4.83152069 3.35514743
H 10.36586039 6.36230620 1.10268855
H 9.91845223 5.10459643 1.88077289
H 9.94048610 1.18106771 0.29991982
H 11.28124581 1.18651998 1.07171564
H 13.79750661 1.15341571 2.55004201
H 14.23914427 14.48979344 3.31985258
H 13.81411550 1.19641347 7.03957595
H 15.15809380 1.20295854 7.80479279
H 15.17666288 5.08901194 7.84030155
H 13.83495054 5.07396039 8.60890684
H 9.09646155 2.73227716 7.80318850
H 9.53682788 1.47026265 7.02616978
H 1.78296005 1.43638576 13.09009216
H 1.78435070 1.43203601 11.54348552
H 5.18402464 3.54424317 10.07177737
H 4.29774022 4.81095116 10.07173256
H 6.04874592 5.11076341 11.52422145
H 6.49499730 6.37630324 12.29093893
H 5.68688332 4.82682408 15.32900523
H 5.67986987 4.83027159 13.78289080
H 2.17371665 1.18190612 15.35011558
H 3.51373224 1.18406360 14.57759401
H 3.53082610 5.08266544 14.56315134
H 2.18638102 5.07958669 15.32805751
H 4.29640580 1.42996145 10.05335333
H 5.63365342 1.43352738 9.27901172
H 5.21605086 2.71785932 14.54362616
H 5.65684063 1.45703624 13.76923518
H 0.41585377 4.83729915 16.79106558
H 1.75255111 4.83900619 17.56952213
H 1.32961683 3.54941135 12.32121530
H 1.78685322 4.80691183 13.09303340
H 2.16240458 5.12568288 10.85334692
H 2.61343015 6.38932681 10.08674840
H 2.60330927 14.49056215 10.04875783
H 2.15042876 1.15427204 9.28475335
H 6.06046915 1.18624878 11.52615191
H 7.40135978 1.18686945 12.29633202
H 6.47604662 14.47999447 16.79133264
H 6.03075935 1.13680085 16.01184430
H 6.52607209 6.36887533 16.79471456
H 7.41995208 5.10579856 16.79634241
H 1.76670007 1.47074123 17.59480014
H 1.32228157 2.72448123 16.80805916
H 8.18374695 8.76560097 12.31409940
H 9.07940155 10.02408756 12.30804240
H 12.07063155 12.14995493 10.04818880
H 13.40796798 12.14820568 9.27314095
H 13.79501241 12.38751888 13.08406104
H 13.80083959 12.39592169 11.53733509
H 12.95244292 10.83786087 14.54423801
H 12.05623807 12.09782406 14.55646076
H 11.29890687 8.47059908 14.52343251
H 9.95559182 8.47604863 13.75707307
H 9.91895397 12.40820771 15.36181930
H 10.36886569 13.66569649 14.58087921
H 12.95637747 10.03512343 10.05528514
H 12.05808743 8.77771479 10.05436928
H 13.45231419 8.73678839 13.77086066
H 13.44466343 8.73920327 15.31893546
H 9.07263707 10.83383174 16.80407302
H 8.16494712 12.08483888 16.81195068
H 9.53032151 12.12759578 13.11454636
H 8.19598246 12.13655411 12.33481253
H 10.36274696 13.68047641 10.08219611
H 9.93001327 12.42130472 10.86601365
H 10.38345917 7.19689055 10.07272632
H 9.92748217 8.45459855 10.84727890
H 13.81503622 8.46665142 11.51142206
H 14.26134885 7.19770435 12.27271728
H 13.79784868 8.45603636 17.58245248
H 14.24325969 7.19439865 16.80719384
H 13.84073349 12.38529601 15.99398830
H 15.17759029 12.37853754 16.76934068
H 9.55842082 8.72155723 17.56323024
H 9.56703226 8.72731244 16.01588417
H 0.42638747 8.74193457 12.32223273
H 1.76083884 8.74442731 13.10203881
H 4.30414384 12.10538950 10.07132451
H 5.19717933 10.84490615 10.07311559
H 6.49609001 13.67725972 12.29819937
H 6.05508319 12.41203364 11.52786310
H 4.30455507 12.14226717 14.53091452
H 5.64768779 12.13324035 13.76696584
H 2.60829096 7.19501854 14.56082714
H 2.15218536 8.44571356 15.34561058
H 2.16282360 12.42764521 13.75515867
H 2.60837763 13.68176637 14.54174824
H 4.31079858 8.73669617 10.04567660
H 5.64938767 8.73499764 9.27313648
H 5.18008036 10.02850455 14.55078123
H 4.28908536 8.76531855 14.55361044
H 1.78835535 12.09127646 15.99729469
H 1.34041438 10.83189275 16.77607797
H 1.30688798 10.85728936 12.31274597
H 0.40712493 12.11353153 12.31180237
H 2.15378871 12.38947445 10.84196241
H 2.15557939 12.37830184 9.29714518
H 2.14746430 8.49282002 9.29381698
H 2.15854860 8.50396742 10.84052961
H 6.03187734 8.48642335 13.08553090
H 6.04092402 8.48958623 11.53928840
H 7.40694313 8.48023214 16.76934356
H 6.06463655 8.48189508 16.00019097
H 6.01973301 12.37016846 17.58076420
H 6.02586538 12.36555664 16.03279850
H 1.75657173 8.72254710 17.58762096
H 0.41391336 8.73000017 16.81910391
