384

O 9.07249438 1.76367804 12.30725145
O 12.96693635 4.50494266 10.06045744
O 14.25977302 5.40933464 12.30600622
O 12.98124190 4.48992112 14.55989170
O 10.37155276 0.84769438 14.55104927
O 10.38945678 5.41137420 14.55432479
O 12.95728149 1.75914216 10.07922216
O 12.96526462 1.74860873 14.56255841
O 9.09075187 4.51287250 16.79528211
O 9.09643036 4.50798278 12.30650891
O 10.37281982 5.40923074 10.05215568
O 10.36840670 0.85117138 10.07334634
O 14.25575895 0.84592661 12.31274101
O 14.26248241 0.85495559 16.81184418
O 14.27215066 5.40654506 16.79472590
O 9.08452879 1.77047846 16.79867580
O 9.08338539 9.06344853 3.32547945
O 12.97599434 11.81067684 1.07990726
O 14.27342137 12.71176832 3.32543515
O 12.98730169 11.80547463 5.57281078
O 10.38184029 8.15470824 5.56323320
O 10.39068166 12.70840319 5.57119874
O 12.97079526 9.07196592 1.10114008
O 12.97324126 9.06531632 5.57486921
O 9.09426554 11.79835345 7.81324690
O 9.10176454 11.81022667 3.32331895
O 10.38917747 12.72076334 1.08057358
O 10.38317188 8.16445508 1.08149127
O 14.27485813 8.15754398 3.34032300
O 14.24826536 8.15273713 7.82212624
O 14.26742374 12.71680528 7.81541592
O 9.08458124 9.05542272 7.80872593
O 1.33189403 9.06242474 3.33039555
O 5.21455758 11.81266656 1.09147764
O 6.51006870 12.71735981 3.33273356
O 5.21677995 11.81294483 5.58060507
O 2.61741760 8.15903512 5.58127327
O 2.62111465 12.71637563 5.58071806
O 5.19648542 9.07060903 1.10594930
O 5.20316879 9.07055342 5.59299836
O 1.32446268 11.80115247 7.82320400
O 1.33160964 11.80359836 3.34321052
O 2.62564951 12.71608344 1.09468795
O 2.60377272 8.15241435 1.08123296
O 6.48797776 8.15007531 3.34488710
O 6.49768431 8.15122967 7.82885049
O 6.50162475 12.70708506 7.83097241
O 1.30914714 9.06008300 7.81892269
O 1.33272744 1.76924969 3.32855405
O 5.21083709 4.50286012 1.10229959
O 6.51501186 5.40826105 3.33923150
O 5.21113432 4.50282382 5.57642518
O 2.60786713 0.85511107 5.58387795
O 2.62152877 5.41995267 5.58540019
O 5.21251547 1.76129289 1.10036627
O 5.20135667 1.75957568 5.59105193
O 1.32420447 4.50676556 7.81732909
O 1.32990510 4.51160232 3.33702381
O 2.62760767 5.41337065 1.08753018
O 2.62069783 0.85186938 1.08925015
O 6.48826062 0.85582994 3.35210652
O 6.49678028 0.84697250 7.83098224
O 6.49664110 5.40799399 7.82323314
O 1.29597662 1.76177148 7.82074357
O 9.08125156 1.76983703 3.34579296
O 12.97389818 4.51153249 1.09995240
O 14.26849793 5.41503311 3.34829904
O 12.97247281 4.50015238 5.58038082
O 10.37842239 0.85439070 5.58132650
O 10.38813503 5.40986039 5.58175742
O 12.97357336 1.76995871 1.10917816
O 12.96210035 1.76085221 5.59130148
O 9.08499376 4.49731493 7.81603996
O 9.10682096 4.50945096 3.33145940
O 10.39493614 5.42502276 1.08354408
O 10.38276399 0.86964801 1.10186931
O 14.27339507 0.85568025 3.34856333
O 14.24349706 0.85451356 7.83134907
O 14.26598149 5.41481674 7.81900530
O 9.08332239 1.76144882 7.82608339
O 1.31629017 1.75507940 12.30500592
O 5.21146880 4.49295420 10.07263014
O 6.50114422 5.41313235 12.30992778
O 5.20090778 4.50339010 14.55139878
O 2.61149784 0.85007834 14.55253059
O 2.60941736 5.41269484 14.55440086
O 5.19764848 1.75425667 10.06755957
O 5.20424474 1.76079135 14.56247082
O 1.32903301 4.49773267 16.79243706
O 1.32150979 4.49878993 12.30795456
O 2.62293579 5.41281726 10.06445326
O 2.60245323 0.85366394 10.05423400
O 6.48992085 0.85400083 12.31647971
O 6.49922057 0.85534300 16.80186761
O 6.49470315 5.41497682 16.79473674
O 1.31659238 1.75785755 16.79971535
O 9.07377664 9.05775637 12.29030191
O 12.96876066 11.80317761 10.05652777
O 14.26449860 12.70631650 12.30420927
O 12.97321367 11.80351836 14.55487565
O 10.36468450 8.15169259 14.54072561
O 10.37750321 12.70681904 14.54022847
O 12.95847709 9.05902444 10.07555279
O 12.95665906 9.06123746 14.55908369
O 9.09217972 11.80811111 16.78247888
O 9.09093129 11.80363402 12.30031648
O 10.37330318 12.71331293 10.05393227
O 10.37733944 8.15217974 10.04683410
O 14.24958039 8.15546790 12.31610102
O 14.25084100 8.15095686 16.80731729
O 14.28597639 12.71358962 16.79172761
O 9.08065614 9.06757986 16.78746479
O 1.31146095 9.06148833 12.30544714
O 5.20630215 11.80343058 10.07686962
O 6.50335219 12.71413795 12.30998893
O 5.20474058 11.80284079 14.55278077
O 2.59751572 8.15405218 14.54616661
O 2.61214394 12.70718197 14.55465517
O 5.19256233 9.06560069 10.07076937
O 5.18747136 9.06229824 14.55118333
O 1.33217712 11.79520760 16.80105291
O 1.32288019 11.80048080 12.30560479
O 2.61682274 12.70897309 10.06399756
O 2.60224148 8.15701190 10.05743582
O 6.48381556 8.15159045 12.31231924
O 6.48828127 8.16165696 16.79848126
O 6.49970750 12.71719612 16.78749929
O 1.30433500 9.05445368 16.78404059
H 9.09277341 2.72653943 12.29580215
H 9.53286412 1.46784742 11.51455362
H 13.40281645 4.83063191 9.26593652
H 12.06109032 4.83102567 10.03648122
H 13.80278314 5.11463884 11.51119543
H 14.24396472 6.37214330 12.29246059
H 12.98648752 3.52695142 14.53669094
H 13.42695155 4.79039563 13.76081193
H 10.36076421 14.48687688 14.53079400
H 9.91397538 1.14813860 13.75893468
H 11.29172233 5.07565102 14.57309879
H 9.95337434 5.08476259 15.34855033
H 12.96800853 2.72182740 10.05369682
H 13.41136078 1.45599356 9.28544893
H 12.05998604 1.42110415 14.53593031
H 13.40380028 1.41608281 13.77213214
H 8.17585415 4.81346549 16.79249907
H 9.06575972 3.54999699 16.79468876
H 8.19087887 4.83475267 12.32975155
H 9.53184578 4.83208005 13.10184719
H 10.36555026 6.37228083 10.07238017
H 9.92658179 5.11281769 10.85276126
H 11.27426781 1.17805176 10.05467989
H 9.93786131 1.17892283 9.27629746
H 13.81999813 1.18321773 11.52253208
H 15.16038345 1.17549923 12.29283421
H 13.78736726 1.17532747 16.03784730
H 13.79337968 1.18746066 17.58464980
H 15.17715050 5.07755346 16.77922244
H 13.84155737 5.07042032 16.00124128
H 8.18175088 1.43474091 16.77886069
H 9.51959651 1.43777141 16.00641511
H 8.17688544 8.73908197 3.34768467
H 9.51742501 8.72723154 4.11701025
H 12.06005973 12.10812457 1.08013731
H 12.95641028 10.84767457 1.08603663
H 14.26670163 13.67480370 3.31397248
H 13.81532676 12.42113992 2.52971424
H 13.43552807 12.10590589 4.77501684
H 12.99501409 10.84266933 5.55175344
H 10.37262294 7.19180559 5.58571521
H 9.92152646 8.45409400 6.35473693
H 9.95623360 12.38139619 6.36615856
H 11.29554320 12.37959838 5.59104306
H 13.43604379 8.73537036 0.32743617
H 13.44111316 8.74094289 1.87347827
H 13.40024581 8.73797051 6.37403560
H 12.06718320 8.73897817 5.59106167
H 9.52277920 12.13218858 8.60887428
H 8.18849804 12.12542223 7.83038698
H 9.55700605 12.10562121 4.11922173
H 9.10730134 10.84741608 3.34376929
H 10.37682337 13.68332618 1.10066438
H 9.93407207 12.42232029 1.87536573
H 11.28791515 8.49352538 1.11027407
H 9.94170774 8.48957614 1.87316500
H 14.25736095 7.19464116 3.36299799
H 13.81413801 8.45907616 4.13070359
H 14.24463357 7.18970999 7.84125590
H 13.79856517 8.44934307 8.62013796
H 15.17176697 12.38576417 7.80454852
H 13.84228442 12.38827768 7.01573836
H 9.54843036 8.75883925 8.59932257
H 9.09912635 10.01850711 7.82550285
H 1.75669626 8.73097002 2.53183425
H 0.42806008 8.72957791 3.32146627
H 4.31262149 12.15048282 1.07847798
H 5.64576099 12.13820976 0.29409053
H 7.41532919 12.38933405 3.31491395
H 6.07819170 12.38648318 2.53799035
H 4.31146098 12.14035982 5.55751857
H 5.65288807 12.13629524 4.78523500
H 3.51941594 8.49682853 5.57453660
H 2.19177812 8.48406209 4.78084523
H 2.15913482 12.37941006 6.35568065
H 2.14829175 12.38345028 4.81016380
H 5.17528921 10.03359695 1.09914344
H 4.28122256 8.77144941 1.08985616
H 5.66176790 8.76966347 6.38472459
H 5.22147250 10.03326955 5.61061910
H 1.33156853 10.83834226 7.84383991
H 1.78343045 12.09884691 8.61593130
H 1.31121371 10.84049526 3.33477645
H 0.41563832 12.10087106 3.33031008
H 2.17081896 12.41387049 1.88786458
H 2.60992312 13.67921789 1.11493195
H 2.60629854 7.18925706 1.06594820
H 2.14572851 8.44324186 0.28558781
H 6.02261987 8.48117504 4.12017034
H 6.01505489 8.48163595 2.57411142
H 6.06333012 8.48042048 8.62265350
H 7.40390887 8.47743012 7.84838245
H 6.04736151 12.41042997 7.03501281
H 6.49099894 13.66999719 7.80953588
H 1.74353841 8.73696515 7.02239961
H 0.40326864 8.73463654 7.79815530
H 1.78201138 1.46480469 4.12418305
H 1.34578689 2.73195103 3.35440831
H 5.22309285 3.53987010 1.11598564
H 5.67570726 4.79884413 1.89204454
H 6.52274838 6.37138905 3.34136033
H 7.43424578 5.12164354 3.33436707
H 5.21446620 3.53972464 5.56330369
H 5.67381190 4.79361523 4.78339165
H 2.59533801 14.49416838 5.60154493
H 2.14310411 1.15308607 6.37291765
H 3.53558423 5.11676235 5.57320555
H 2.64737043 6.38295248 5.58166403
H 4.30556756 1.43787400 1.07519775
H 5.64664218 1.43250320 0.30577812
H 5.62916143 1.42347241 4.79592621
H 4.29559143 1.43237422 5.57766879
H 1.79125370 4.83424072 8.59320140
H 1.79949424 4.83875384 7.04779760
H 1.76396627 4.84813275 4.12800000
H 0.42322605 4.83548484 3.35826481
H 3.53167034 5.08185181 1.11515167
H 2.18844167 5.08857584 1.88053130
H 2.15865924 1.18967681 1.86403940
H 2.14493305 1.17917329 0.31819939
H 6.04040683 1.15440555 2.55307052
H 6.48915097 14.49490103 3.32359179
H 7.40075829 1.17897751 7.81295920
H 6.06236258 1.18062184 7.03861251
H 6.04362121 5.10998034 7.02722401
H 6.48405943 6.37077063 7.80654255
H 1.75757834 1.46521701 8.61241675
H 1.31645382 2.72464230 7.83307633
H 8.17624517 1.44232242 3.37119366
H 9.52111768 1.43836325 4.13612805
H 12.07244236 4.85058789 1.07333454
H 13.41389316 4.83370542 0.30617574
H 13.80095342 5.09016993 2.57155228
H 13.79682272 5.07670668 4.11711814
H 12.05759890 4.80181626 5.58568987
H 12.94684981 3.53724821 5.58748984
H 10.40363805 14.49371689 5.58107160
H 11.29435084 1.15328679 5.58361301
H 9.91235501 5.08115534 6.35197296
H 9.92253709 5.08367146 4.80421028
H 12.95070385 2.73310944 1.10794660
H 12.05739399 1.47242251 1.11123880
H 13.42846891 1.43219529 6.36777803
H 13.44003518 1.43664445 4.82077343
H 8.18052055 4.82768184 7.83689991
H 9.51932056 4.82663435 8.61047673
H 9.11066120 3.54658701 3.31304902
H 9.56369834 4.80737836 2.53797224
H 9.92936839 5.12660646 0.29504564
H 10.37873735 6.38791229 1.06936610
H 9.90838355 1.19278219 1.87505979
H 9.91177907 1.19572435 0.32775385
H 15.17736376 1.18633737 3.32255280
H 13.83250868 1.19158069 2.56093668
H 14.27062400 14.49362471 7.82778642
H 15.15799190 1.15718018 7.83129985
H 13.83347594 5.08375704 7.02467743
H 15.17256605 5.09035842 7.79993911
H 9.09309187 2.72464032 7.80652854
H 9.54222529 1.46197754 7.03420175
H 1.76880189 1.45476109 13.10030452
H 1.32911507 2.71785413 12.32638268
H 5.66208984 4.79543807 9.27694849
H 5.21942198 3.53004240 10.04685805
H 6.04019499 5.07415920 11.53486776
H 6.02869288 5.08289404 13.08130125
H 5.21313863 3.54069485 14.57359628
H 5.65771261 4.80484864 15.34375149
H 2.15576242 1.14793517 15.34699275
H 2.60319717 14.48928212 14.57391583
H 3.52502924 5.11394221 14.54780714
H 2.63012912 6.37573147 14.54645539
H 5.63279003 1.41989734 9.27605226
H 4.29160198 1.42858532 10.04654133
H 4.29902569 1.43309405 14.54195605
H 5.63697337 1.43670616 13.76522603
H 1.80064293 4.82400357 17.56608130
H 1.79727326 4.83208977 16.01970423
H 1.75207555 4.83320591 13.10176349
H 0.41655880 4.82762763 12.32269484
H 2.18506917 5.08513881 10.85681770
H 3.52618607 5.07965805 10.08618135
H 2.15101704 1.15109890 10.85143035
H 2.59355503 14.49299068 10.07441305
H 6.05374916 1.17841488 11.52145126
H 7.39149084 1.19308430 12.29621885
H 6.04202494 1.15268362 16.00774432
H 6.49142812 14.49420375 16.77985919
H 6.48209222 6.37777915 16.81422847
H 6.04332756 5.11666628 17.59148785
H 1.30249075 2.72104454 16.79198658
H 0.39866906 1.46620085 16.79957073
H 9.50654905 8.72284620 13.08260332
H 8.16774401 8.73138584 12.30977111
H 13.40316428 12.12760121 9.26056786
H 12.06395925 12.13182919 10.03540405
H 13.80916803 12.40596611 11.51042838
H 14.24951121 13.66924709 12.28160983
H 13.43784210 12.12760653 13.77601892
H 13.44773961 12.13950341 15.32242595
H 10.39768071 7.18900848 14.54159850
H 11.27772323 8.45841018 14.54243069
H 9.94445696 12.38104091 15.33687408
H 11.28497663 12.38568474 14.56545611
H 12.97432791 10.02192445 10.08287147
H 13.41742022 8.76733208 10.87056873
H 13.41075151 8.76161987 15.35373083
H 12.97012709 10.02421614 14.57830258
H 9.10256956 10.84524838 16.80539102
H 9.54823805 12.11112834 17.57471586
H 9.54841874 12.09227960 13.09755278
H 9.09175936 10.84062236 12.31400320
H 9.92492077 12.40884905 10.85014009
H 10.36106251 13.67601954 10.07952615
H 9.93639841 8.47977785 10.83779386
H 11.28286460 8.47988761 10.07761333
H 13.81840837 8.48115703 13.11342544
H 15.15535720 8.48177984 12.33457797
H 15.16638064 8.45048932 16.79363199
H 14.27518019 7.18805187 16.79856161
H 13.81843221 12.40757760 17.57657288
H 14.26724916 13.67618410 16.81825475
H 9.55637622 8.73627781 17.55657739
H 9.54308154 8.73562860 16.01042627
H 1.32407457 10.02431701 12.28542119
H 1.76029559 8.76054636 11.50824561
H 5.68156750 12.13513144 10.84625989
H 5.67205071 12.13004774 9.29958796
H 7.41971178 12.41751225 12.30992227
H 6.52187901 13.67723586 12.31374733
H 5.66238007 12.10448255 13.76081727
H 5.21146242 10.83996299 14.52858135
H 2.16608056 8.48036536 13.74888442
H 3.50154059 8.48553889 14.52903113
H 2.18403790 12.37318689 15.35025720
H 3.51764572 12.37932898 14.56770968
H 4.27587418 8.77060539 10.06147821
H 5.17546133 10.02870472 10.07409199
H 5.65574898 8.72392416 13.78053025
H 5.65613687 8.73875089 15.32763548
H 0.42914213 12.13070885 16.81808797
H 1.76555275 12.12718117 17.59452742
H 0.41810736 12.13015003 12.31969297
H 1.75266931 12.12637300 13.10331801
H 3.52468323 12.38818401 10.08956612
H 2.18189602 12.38061891 10.85801834
H 2.14252538 8.44368975 9.26116916
H 2.60244198 7.19400641 10.04595095
H 6.02110312 8.45594432 11.52407907
H 6.47296318 7.18872875 12.28562675
H 7.39287538 8.49110584 16.81851968
H 6.05198972 8.49598751 17.58918023
H 7.40467178 12.38820650 16.77032618
H 6.06736387 12.38117547 15.99493168
H 1.32098563 10.01751323 16.77694923
H 1.76085333 8.76359847 15.98723465
