384

O 9.07360892 1.75470749 12.31662083
O 12.97640804 4.50260026 10.06147717
O 14.26556160 5.41193946 12.31123705
O 12.97442235 4.50430417 14.53887696
O 10.37468897 0.85020411 14.56406926
O 10.38159981 5.40365796 14.55370082
O 12.96344281 1.76132746 10.06014517
O 12.95938984 1.76794737 14.54421810
O 9.08730901 4.49941877 16.80341694
O 9.09082118 4.49460432 12.30457098
O 10.38698477 5.40671294 10.06227100
O 10.37146019 0.85806330 10.06949745
O 14.25918560 0.84839284 12.30039587
O 14.26314224 0.84786849 16.78040924
O 14.28007962 5.41053164 16.78490210
O 9.08100778 1.76182450 16.81274887
O 9.08734623 9.06025147 3.33278432
O 12.98554325 11.80633199 1.07312738
O 14.27990283 12.70475905 3.32322513
O 12.98499770 11.80681877 5.57143646
O 10.38605967 8.14968401 5.58012584
O 10.38789682 12.70942616 5.57725455
O 12.96443524 9.06380023 1.08647801
O 12.96881042 9.06874129 5.56801421
O 9.08911536 11.80344176 7.82110452
O 9.09820686 11.80495771 3.33127187
O 10.40488630 12.70949658 1.09297585
O 10.38171567 8.14914939 1.09806504
O 14.26029194 8.15364149 3.32586048
O 14.25697183 8.15005142 7.81237731
O 14.27070496 12.71694390 7.81210414
O 9.08933410 9.06243243 7.82498944
O 1.32290686 9.05590985 3.34129429
O 5.21086055 11.81383162 1.09994856
O 6.50549535 12.71755369 3.34807419
O 5.21063041 11.80486650 5.58966639
O 2.61390667 8.16125514 5.58715192
O 2.62330212 12.71367915 5.57755759
O 5.19686384 9.06771417 1.10411754
O 5.20229975 9.06627073 5.58893311
O 1.32449557 11.80653037 7.81722912
O 1.33761061 11.79770894 3.33373792
O 2.62530873 12.72595661 1.08353473
O 2.61118381 8.15104602 1.10534885
O 6.48737953 8.16095641 3.34816117
O 6.49500414 8.16206545 7.83247235
O 6.50397895 12.71077689 7.82815860
O 1.31830286 9.06691177 7.83081665
O 1.31742441 1.76984254 3.34399049
O 5.20014365 4.51259360 1.10265374
O 6.49351455 5.41837811 3.34779656
O 5.20221919 4.49625947 5.58612244
O 2.60794083 0.85728357 5.59138562
O 2.61397983 5.41261498 5.58112103
O 5.18929304 1.76626720 1.10138043
O 5.19310913 1.75520347 5.59424134
O 1.30784249 4.50700606 7.81426454
O 1.31866242 4.51030993 3.33705052
O 2.61021880 5.41310628 1.08801759
O 2.59984566 0.86115297 1.09882639
O 6.49079371 0.85903563 3.34635755
O 6.49503555 0.85153188 7.82505224
O 6.48870209 5.41313934 7.83417115
O 1.30456750 1.76438424 7.82134220
O 9.07988793 1.76281254 3.33603444
O 12.98109766 4.50018297 1.08198172
O 14.26100805 5.41120052 3.33549299
O 12.95578722 4.50151413 5.57424035
O 10.36998708 0.84949191 5.58042239
O 10.37180419 5.40858744 5.58118604
O 12.96318924 1.75432207 1.07721331
O 12.95817320 1.75470425 5.55589392
O 9.07536626 4.50917420 7.82063641
O 9.08111847 4.49959400 3.33782502
O 10.38817750 5.40750189 1.09497257
O 10.37521592 0.84719168 1.10276893
O 14.26236702 0.84375694 3.32056020
O 14.25088794 0.85618741 7.80729463
O 14.25510743 5.40550296 7.80944480
O 9.07937707 1.76435430 7.82357240
O 1.31644369 1.76635930 12.30602996
O 5.19279498 4.51265665 10.07571727
O 6.50068089 5.41661531 12.31072675
O 5.22395186 4.50044011 14.56506294
O 2.62159591 0.85928182 14.54501244
O 2.62758195 5.40973414 14.54504000
O 5.19736614 1.76915247 10.07077860
O 5.21253566 1.75919056 14.55088282
O 1.33493102 4.49626839 16.77892353
O 1.31647069 4.51208503 12.30705119
O 2.60419320 5.41756641 10.06032821
O 2.60685821 0.85858686 10.06619837
O 6.48542065 0.84596502 12.30964423
O 6.48830457 0.86321197 16.80306616
O 6.50138662 5.41744920 16.80856204
O 1.32033332 1.75327572 16.78619481
O 9.08403926 9.06109255 12.31264997
O 12.97863344 11.80896719 10.06134281
O 14.27037879 12.71147028 12.29970286
O 12.98370789 11.79927150 14.54566912
O 10.37988723 8.14733191 14.55471588
O 10.39784749 12.71063828 14.54869949
O 12.96777217 9.06503211 10.05912529
O 12.96534713 9.06093364 14.55694909
O 9.10411230 11.79779388 16.78771853
O 9.10670113 11.80415471 12.30819996
O 10.39330057 12.71663786 10.05529187
O 10.38042723 8.14564613 10.06753419
O 14.25980403 8.15728649 12.30750635
O 14.26536440 8.15510990 16.80299850
O 14.28486819 12.70375512 16.78140667
O 9.08223189 9.05541073 16.79913228
O 1.31819303 9.06828484 12.31526119
O 5.20146022 11.80681250 10.06566155
O 6.51169830 12.71152207 12.30388474
O 5.22535760 11.80397239 14.54623411
O 2.61366795 8.15253472 14.55916894
O 2.63634611 12.71670232 14.53775279
O 5.19164481 9.06893712 10.06696483
O 5.19338504 9.06602780 14.56048671
O 1.34114363 11.80917895 16.77405240
O 1.32387837 11.81042202 12.30601109
O 2.61671839 12.72108554 10.06078399
O 2.61029878 8.15611356 10.07189560
O 6.49155631 8.16774338 12.31602632
O 6.48868410 8.16207920 16.80857945
O 6.51079844 12.71605421 16.79577598
O 1.32432924 9.05912023 16.80247892
H 9.50991571 1.42900692 13.11096302
H 8.17122648 1.41903104 12.33564330
H 12.98147664 3.53955074 10.08234746
H 13.43217040 4.80174953 10.85527935
H 15.18336806 5.11864216 12.30726892
H 14.28295471 6.37499770 12.30281771
H 13.44515258 4.84074001 13.76807896
H 13.44221589 4.83243161 15.31382749
H 11.27535530 1.19134920 14.57477920
H 9.94201755 1.17759285 15.35956084
H 9.94304017 5.06853810 13.76453631
H 11.28829037 5.07994007 14.52662505
H 12.05602701 1.43895453 10.08147174
H 13.39861017 1.42169112 10.84920920
H 13.41725893 1.46098196 13.75471045
H 12.97909815 2.73088766 14.51907208
H 9.55860712 4.82423563 16.02912083
H 9.55893909 4.82880734 17.57614577
H 9.05676424 3.53208707 12.31178462
H 8.17875770 4.80403594 12.30518526
H 11.29249694 5.07920876 10.08425227
H 9.94928491 5.06792634 10.85051918
H 9.90552123 1.19430989 9.29667506
H 9.89810084 1.18002443 10.84388013
H 15.17346774 1.15019694 12.30174732
H 14.28482449 14.48747770 12.30109125
H 13.78874186 1.17627647 17.55144570
H 13.79795755 1.18032782 16.00540439
H 14.26232566 6.37321637 16.80904571
H 13.82112113 5.10639548 17.57509984
H 8.16485316 1.46477428 16.80511224
H 9.06089051 2.72476178 16.80967651
H 9.06699401 10.02318823 3.33678020
H 8.17137092 8.76316418 3.34311932
H 13.42333019 12.12745917 1.86842709
H 12.08240957 12.14156789 1.09868185
H 13.84618909 12.37899013 4.11893996
H 15.18273909 12.37020108 3.34035308
H 12.07949297 12.13448962 5.58967752
H 13.41614500 12.14299691 6.36475504
H 9.94566970 8.47647048 4.78865195
H 11.28772557 8.48750750 5.55600869
H 10.37227626 13.67229804 5.59565661
H 9.92971378 12.40845493 6.36905186
H 12.94755452 10.02699118 1.08234333
H 12.04741573 8.76833625 1.09117494
H 13.42404035 8.76195202 6.35942747
H 12.98390330 10.03152223 5.59529837
H 9.07537655 10.84024208 7.82419029
H 8.17073801 12.09342102 7.82362687
H 9.53399709 12.12919017 4.12696564
H 8.19474431 12.13737073 3.35535952
H 9.94047788 12.40617737 1.88035843
H 10.37941611 13.67240117 1.11266520
H 9.90650131 8.47383048 1.87068116
H 9.90889180 8.47284353 0.32403937
H 13.79759602 8.49114635 4.10031697
H 13.78749048 8.48375908 2.55440781
H 14.28046160 7.18703528 7.81266642
H 15.17181989 8.45012487 7.82181780
H 13.81529096 12.41624402 8.60568381
H 14.25564502 13.68005464 7.83113029
H 9.55249580 8.72726817 8.60010166
H 9.56041762 8.73288796 7.05276525
H 1.76021064 8.72017334 2.55106536
H 0.41511809 8.73570282 3.31498194
H 5.65230537 12.14113584 0.30912301
H 4.30833506 12.14956966 1.07203173
H 6.03518696 12.38520274 4.12015844
H 6.03796241 12.38631886 2.57391180
H 4.29500069 12.10393161 5.58432944
H 5.18686603 10.84156148 5.58834584
H 2.15428894 8.45498810 4.79288711
H 2.60254471 7.19839390 5.57138432
H 2.14884014 12.38901077 6.35018012
H 2.15788169 12.38233466 4.80229273
H 5.20665803 10.03062554 1.08642809
H 5.65498243 8.77200386 0.30997697
H 4.29830366 8.73401866 5.57162638
H 5.63309783 8.73645124 4.79273918
H 0.42125051 12.14010890 7.83868654
H 1.76188671 12.13896471 8.60857506
H 1.34913699 10.83491205 3.30885977
H 1.79013839 12.10299752 2.54044507
H 2.60503935 13.68920110 1.07495379
H 2.16944910 12.43022136 0.28891149
H 2.64038265 7.18831692 1.09783067
H 3.52448978 8.45749219 1.10214249
H 6.03396105 8.45817972 2.55207677
H 6.48053517 7.19805479 3.33054157
H 6.06080135 8.48697714 7.03631752
H 7.40054824 8.48850816 7.80988657
H 6.03042324 12.38609231 8.60134712
H 6.03226743 12.38355631 7.05436340
H 1.32585052 10.02999832 7.81151969
H 1.77417065 8.77031643 7.03604142
H 1.32042209 2.73298659 3.36063044
H 1.77189250 1.47515579 4.14003005
H 5.66573511 4.83941413 1.87981567
H 5.67240921 4.84678701 0.33263349
H 6.05975649 5.08353994 4.14007851
H 7.39805217 5.08878373 3.36525403
H 5.20911421 3.53343797 5.61359126
H 5.65429397 4.80035689 6.38032865
H 3.52500125 1.15268934 5.59115322
H 2.62844633 14.49665068 5.57974750
H 3.51864712 5.08275060 5.56220808
H 2.18112644 5.08953673 4.78379205
H 5.20936614 2.72882819 1.08458385
H 5.64682939 1.46638320 0.30844751
H 5.66699096 1.42300314 6.36459210
H 5.66285354 1.43269215 4.81780352
H 1.32211199 3.54397917 7.79706384
H 1.76975161 4.80401546 7.02274027
H 1.74689318 4.83516864 2.53820990
H 0.41394682 4.84068340 3.32394202
H 3.51454703 5.08184839 1.07740546
H 2.18208108 5.08028367 0.29213008
H 2.17007221 1.19071641 1.89524911
H 3.50441646 1.19184949 1.11393855
H 6.48267912 14.49818606 3.32708792
H 6.02964124 1.15607205 2.55483610
H 6.51631030 14.49068732 7.83303704
H 7.41064079 1.15026248 7.82547027
H 7.40520908 5.11587376 7.83200312
H 6.51172524 6.37587442 7.83072937
H 1.77571780 1.43689665 8.59452037
H 1.77327492 1.42884094 7.04920868
H 8.16430879 1.46381421 3.33936718
H 9.05808618 2.72580375 3.33906225
H 12.98469908 3.53714973 1.09809735
H 13.43272438 4.79317016 1.88034932
H 14.24282329 6.37418670 3.35113046
H 13.80080082 5.11220824 4.12688497
H 13.41760771 4.79123504 6.36858196
H 12.96756895 3.53853076 5.58275166
H 11.27674043 1.17303311 5.55070019
H 9.93197358 1.17609508 4.78725205
H 11.28627370 5.10514888 5.57927839
H 10.39868168 6.37139449 5.57680011
H 12.05685110 1.42914135 1.10598887
H 13.40399679 1.41782005 1.86441830
H 13.42403842 1.42482571 6.33153612
H 13.43129280 1.42191668 4.78572358
H 9.55276853 4.83114674 8.59255790
H 9.54380347 4.83974400 7.04627713
H 9.55262074 4.82577641 2.56394777
H 9.55306416 4.82964611 4.10992516
H 10.40881372 6.37045116 1.09625304
H 11.30355960 5.10857374 1.09240757
H 9.90446340 1.17539768 0.32870959
H 9.90420895 1.18189608 1.87355626
H 14.29417298 14.48303321 3.31913653
H 15.17484068 1.15143648 3.32613780
H 15.15518166 1.18711272 7.83176248
H 13.81204530 1.18793344 8.59756727
H 13.82665934 5.08148737 8.60902777
H 15.16025458 5.07578582 7.82629469
H 9.54022618 1.46639955 7.03194861
H 9.08715845 2.72736835 7.80128419
H 1.32350466 2.72933745 12.32481233
H 1.77466307 1.47014276 13.09981408
H 5.62982902 4.84287852 9.28330828
H 4.28570934 4.83581584 10.04759924
H 6.48929580 6.37951596 12.29753737
H 6.03405922 5.12460379 11.52022208
H 5.67049965 4.80551361 13.76808562
H 5.23238142 3.53760733 14.53690599
H 2.16287203 1.15126485 15.34009319
H 2.61396138 14.49822604 14.56009454
H 3.53262124 5.08238141 14.57063874
H 2.18749062 5.07281900 15.33315764
H 5.20626914 2.73224760 10.05260558
H 5.65095270 1.47130258 9.27552762
H 4.30482978 1.43731549 14.53113622
H 5.64205336 1.42557145 13.75553523
H 1.30237493 3.53375427 16.78110265
H 0.42205598 4.80401852 16.78234239
H 1.79356909 4.83814665 13.07748542
H 1.78315102 4.83876802 11.53030934
H 2.59022726 6.38069978 10.04184073
H 2.14527275 5.11673981 9.26898546
H 3.51056691 1.19048413 10.08634963
H 2.17123173 1.19221777 10.85803961
H 6.48195513 14.48512558 12.28388193
H 6.03522561 1.15013529 11.51437460
H 6.03687243 1.15458874 16.00336922
H 6.48773575 14.50251896 16.78455905
H 7.40512242 5.08555431 16.78839578
H 6.06795963 5.08578278 16.01435659
H 0.41519097 1.42480004 16.80337359
H 1.74895312 1.43516415 17.58799743
H 8.16375208 8.77700964 12.31431030
H 9.07666577 10.02427732 12.31093662
H 12.95316226 10.84615510 10.05604324
H 12.06372484 12.11045290 10.05152834
H 13.79773648 12.38385045 11.52661144
H 13.80282633 12.38103009 13.07414231
H 12.98570766 10.83626969 14.56668674
H 13.44664940 12.09553433 15.33656525
H 10.36891114 7.18429319 14.53607629
H 9.91891542 8.44586007 13.76354335
H 10.41526407 13.67371642 14.55511251
H 11.31427915 12.41360050 14.55206515
H 12.06472003 8.73039783 10.04837602
H 13.39771705 8.73225290 9.26447285
H 12.06131366 8.72908319 14.53508034
H 13.40054706 8.73401058 13.76257749
H 9.57593855 12.13012487 16.01641246
H 9.57336713 12.12527229 17.56208403
H 9.58083673 12.13582359 13.07832676
H 9.57043527 12.13396384 11.53145189
H 9.92886929 12.41541567 9.26702897
H 10.37464705 13.67937983 10.03763026
H 10.37072080 7.18274394 10.09247445
H 9.92314386 8.44845017 10.85921847
H 15.16304093 8.49073211 12.29310427
H 13.82793684 8.48684013 11.51238244
H 13.79003717 8.48909838 17.57173058
H 13.79794256 8.47931312 16.02592478
H 13.82290951 12.41032651 17.57435252
H 14.26697487 13.66663655 16.79300554
H 9.54070980 8.75118754 16.00868040
H 9.10257046 10.01812146 16.77641114
H 1.78220799 8.73625274 13.09094383
H 1.78999574 8.73688095 11.54393736
H 4.29891157 12.14234753 10.09007530
H 5.64332160 12.13112109 10.85740132
H 7.41885124 12.38906059 12.32056139
H 6.08147473 12.37743354 13.09841809
H 4.31267488 12.11247292 14.54288109
H 5.18912906 10.84129536 14.55206700
H 2.15523496 8.44909101 15.35298153
H 2.60517321 7.18959580 14.57674756
H 2.16119311 12.39197992 13.76522100
H 2.16676619 12.38267961 15.30993473
H 5.65768259 8.76967676 9.27876121
H 5.20617457 10.03188248 10.04836858
H 5.63189983 8.73835012 15.35280412
H 4.28977303 8.73292018 14.58480901
H 1.31992470 10.84658593 16.78764747
H 0.42443908 12.10547891 16.78009661
H 1.30706775 10.84734667 12.30674461
H 0.40614317 12.10292651 12.30195811
H 2.60272345 13.68415859 10.08198806
H 2.15903347 12.41897257 10.85256490
H 2.17265171 8.49324833 9.28274811
H 3.51537355 8.48573476 10.04734050
H 6.02088875 8.49733132 11.54340396
H 6.01821306 8.48925191 13.09082486
H 6.51288722 7.19934580 16.80868846
H 7.40443262 8.46072918 16.80072101
H 6.07753039 12.38090755 16.00367266
H 7.41652507 12.38980150 16.77600087
H 0.41828277 8.73374444 16.82534880
H 1.75867005 8.73343184 17.59801305
