384

O 9.08556592 1.76443333 12.30797442
O 12.97599955 4.50832131 10.07356474
O 14.27677983 5.40705621 12.31023283
O 12.97652815 4.49905031 14.54828399
O 10.38604072 0.84664761 14.54366871
O 10.39175548 5.40956391 14.55846742
O 12.96805645 1.77033823 10.05488819
O 12.97241266 1.75858040 14.55240860
O 9.09392569 4.50218931 16.79552188
O 9.08554221 4.50678277 12.31405191
O 10.38346907 5.41602540 10.07659736
O 10.37857704 0.85898462 10.06310484
O 14.25211296 0.85460613 12.29830453
O 14.25627197 0.84332173 16.79869370
O 14.26205458 5.40598081 16.80275771
O 9.08289251 1.75698778 16.77856808
O 9.08264134 9.06659743 3.33868112
O 12.96932116 11.80006956 1.08707205
O 14.26373606 12.71491395 3.32316307
O 12.96375820 11.79665033 5.56455679
O 10.37409840 8.15919977 5.58842556
O 10.38489118 12.69927495 5.56344773
O 12.96337341 9.05612656 1.10346284
O 12.96793669 9.05578415 5.58841415
O 9.09353519 11.81011624 7.82016922
O 9.08824258 11.80971175 3.32443468
O 10.37938466 12.72131044 1.07679966
O 10.37571663 8.15286500 1.09891862
O 14.26709106 8.14949990 3.34937054
O 14.26320780 8.14849537 7.83128374
O 14.26091456 12.71008619 7.80032977
O 9.08354532 9.07265376 7.82718379
O 1.31522576 9.05826527 3.34013862
O 5.20678800 11.80708408 1.08007697
O 6.50259515 12.72292701 3.32599876
O 5.21382705 11.80224162 5.57258759
O 2.61805498 8.15277250 5.58894012
O 2.62452004 12.71425443 5.56660198
O 5.18987530 9.06225865 1.08947014
O 5.20769389 9.06439062 5.58073947
O 1.32155705 11.79910314 7.81091020
O 1.32291796 11.80349539 3.32374565
O 2.62024443 12.71208297 1.08646311
O 2.60642784 8.15246082 1.10015591
O 6.49098620 8.15654551 3.33549145
O 6.50158958 8.16628360 7.82962939
O 6.50587343 12.71831946 7.82267263
O 1.31875543 9.06118289 7.83299171
O 1.31350936 1.75461798 3.34083827
O 5.20254945 4.50777665 1.09737124
O 6.50012606 5.41793846 3.34206579
O 5.20965214 4.50915732 5.59434927
O 2.61512854 0.85638342 5.58357976
O 2.61331063 5.40987816 5.59797786
O 5.18536993 1.76526379 1.08591460
O 5.20093521 1.77048315 5.57962203
O 1.31053830 4.49537770 7.83116354
O 1.32126682 4.49263309 3.35247052
O 2.61293373 5.40806338 1.10998075
O 2.60197411 0.85377100 1.09213323
O 6.49010305 0.86056421 3.32911826
O 6.48897870 0.85939786 7.82380932
O 6.50064150 5.42613254 7.84077795
O 1.31803976 1.76156767 7.82429251
O 9.08508290 1.76201623 3.32774196
O 12.97125526 4.51130803 1.09893710
O 14.27138065 5.40686300 3.33549414
O 12.96632648 4.50849480 5.57495276
O 10.36673289 0.83861597 5.56819014
O 10.37870023 5.41059883 5.58777729
O 12.97278010 1.77135276 1.09668975
O 12.95166780 1.76224507 5.57867070
O 9.09105675 4.50049631 7.83458947
O 9.08085077 4.50207278 3.34345279
O 10.37507526 5.41524899 1.09951199
O 10.38313743 0.86138850 1.08066479
O 14.25706334 0.85283485 3.34762393
O 14.26040195 0.85519858 7.81673651
O 14.25143690 5.40933486 7.82780273
O 9.08345400 1.75526023 7.81678309
O 1.30945072 1.75445534 12.29740189
O 5.20340298 4.51410062 10.08023840
O 6.49554994 5.41382263 12.32950103
O 5.19275854 4.49188349 14.57008803
O 2.60734751 0.84941074 14.54126754
O 2.61398990 5.41104400 14.55940514
O 5.20432598 1.77486974 10.07098493
O 5.19251332 1.75799515 14.55728881
O 1.32331588 4.49432582 16.80788413
O 1.33026772 4.49376066 12.30995547
O 2.61149105 5.41324927 10.06215992
O 2.61855061 0.85486564 10.05562515
O 6.49913311 0.86223679 12.31464398
O 6.48926686 0.85776631 16.80249869
O 6.50255857 5.41431328 16.80890986
O 1.30889423 1.75693676 16.78930389
O 9.09348718 9.06002739 12.31850293
O 12.96965863 11.81377970 10.04509796
O 14.26366194 12.71105372 12.29173788
O 12.97589827 11.79969393 14.54263472
O 10.38723651 8.15650853 14.55866396
O 10.39107506 12.70547943 14.53847947
O 12.97299322 9.07203838 10.06626916
O 12.97258452 9.06370542 14.55734182
O 9.09461544 11.80551664 16.78468432
O 9.09570981 11.80258004 12.30105276
O 10.38490500 12.72430420 10.05964354
O 10.38154767 8.15672577 10.07191334
O 14.26135922 8.15176644 12.31169876
O 14.26142466 8.14618223 16.79973830
O 14.27683488 12.70180567 16.78753298
O 9.08301349 9.06765611 16.79818742
O 1.31777287 9.05749332 12.30337094
O 5.20682432 11.80946658 10.06618740
O 6.50750340 12.71933196 12.30554146
O 5.20828446 11.80903559 14.54728056
O 2.61387018 8.15675817 14.54804114
O 2.61521828 12.71021551 14.53499535
O 5.20954241 9.06412035 10.07742055
O 5.20539277 9.06576066 14.55645870
O 1.33201509 11.79384138 16.78587827
O 1.31949940 11.80126530 12.28749882
O 2.61772343 12.71538832 10.04430883
O 2.62281204 8.15363927 10.06674254
O 6.50626140 8.16219174 12.31496925
O 6.49500345 8.16009015 16.80016410
O 6.50871927 12.71941273 16.78822410
O 1.31604625 9.05470875 16.79416395
H 9.55548879 1.44369268 11.53099650
H 9.55680558 1.43064263 13.07870285
H 12.06974866 4.83403663 10.05971295
H 13.40264554 4.83636453 9.27441754
H 13.82082232 5.11049415 11.51501618
H 14.26203293 6.36997534 12.29156847
H 12.98705662 3.53605945 14.53453204
H 13.43646315 4.79505099 13.75566176
H 10.37684330 14.48565455 14.56198602
H 9.92114708 1.14306713 15.33361468
H 9.95190184 5.08170788 13.76698033
H 11.29710974 5.08155479 14.52993200
H 12.97879700 2.73333541 10.07872953
H 13.41853227 1.46901250 10.85110270
H 13.40378222 1.42816237 15.34763624
H 12.06739574 1.42932297 14.56991873
H 9.55724637 4.79874104 16.00475084
H 9.09831231 3.53939014 16.77293740
H 9.06461957 3.54393064 12.31482696
H 8.16953353 4.80414193 12.32292728
H 9.91090882 5.08894385 10.84962961
H 9.91909690 5.07677459 9.30396779
H 9.93998887 1.18080187 9.26827554
H 11.28169548 1.19225592 10.03863542
H 15.15816070 1.18098060 12.31479489
H 13.82338799 1.17981938 13.09693833
H 13.82731501 1.18091053 17.59213858
H 15.16086940 1.17408695 16.81060464
H 14.25302820 6.36890566 16.77722682
H 13.81486634 5.10316448 16.00533289
H 9.52054513 1.43292865 17.57279150
H 8.17624418 1.43341010 16.80650266
H 8.17696711 8.73919599 3.32069345
H 9.51348169 8.73241169 2.54470958
H 12.94214875 10.83724869 1.08604515
H 12.05557794 12.10394630 1.08015783
H 13.79428109 12.38085951 4.09466255
H 13.79560473 12.38326688 2.54926028
H 13.42321190 12.10522318 6.35307502
H 12.98453939 10.83410201 5.59077302
H 11.27973755 8.48596983 5.56785063
H 9.94110672 8.48386545 4.79187251
H 11.28900107 12.36634619 5.58457592
H 9.95160416 12.37996011 6.36189096
H 12.06038101 8.72097949 1.08395132
H 13.39847512 8.72707971 0.30998255
H 13.43451686 8.72733513 6.36425535
H 13.44193192 8.72642387 4.81739797
H 9.52750814 12.14507734 8.61208132
H 8.18963950 12.14289574 7.83835020
H 9.09481977 10.84665241 3.33861700
H 9.55008913 12.10020671 4.11843455
H 9.92738701 12.42384224 1.87346853
H 10.37502165 13.68431361 1.09789132
H 9.91934366 8.45484187 0.30637853
H 10.35743329 7.18973181 1.08155815
H 13.82631529 8.47969128 2.55944339
H 15.17060536 8.48307753 3.32334863
H 15.16939963 8.47315132 7.85447380
H 13.82504444 8.48477503 8.62048116
H 13.80408164 12.41427208 8.59518956
H 14.25290615 13.67298781 7.82250036
H 9.54224308 8.77778598 7.03320074
H 9.09817773 10.03593677 7.81406046
H 1.77511192 8.76173788 2.54728073
H 1.32824462 10.02105513 3.32300671
H 4.30241743 12.13803982 1.10417227
H 5.64408889 12.13316827 1.87348889
H 7.40817110 12.39450288 3.34200025
H 6.07285305 12.38791444 4.12000258
H 5.22225521 10.83909469 5.59117360
H 5.66840102 12.10071275 6.36709967
H 2.15694984 8.45280533 4.79854803
H 2.59922095 7.18987939 5.57214606
H 3.52836198 12.38168365 5.58656198
H 2.18944013 12.38214688 6.35877154
H 5.20526003 10.02509677 1.07514818
H 5.65288209 8.76703127 0.29799259
H 4.30306585 8.73406841 5.56507719
H 5.63711438 8.73291067 4.78468318
H 0.40654101 12.09889728 7.80469594
H 1.29956324 10.83618781 7.81371469
H 1.75874982 12.13222728 4.11694559
H 0.41727468 12.13006589 3.34421342
H 2.15920420 12.41226306 1.87735647
H 2.60162266 13.67504276 1.10451776
H 2.17210860 8.47500505 0.30321475
H 3.51064203 8.48428040 1.07559100
H 6.03207817 8.45209385 2.54227424
H 6.48424150 7.19343566 3.32008355
H 7.40439293 8.50220911 7.81058329
H 6.06841115 8.48781899 7.03186971
H 6.48480666 13.68112918 7.83953717
H 6.04296236 12.41770466 8.61181290
H 1.78581219 8.73186532 7.05796957
H 1.79265766 8.73415035 8.60515502
H 1.77759335 1.45572924 4.13005290
H 1.32344486 2.71753683 3.36231612
H 5.67677453 4.83816400 0.32646210
H 5.67333596 4.82987479 1.87309051
H 7.40384862 5.08504540 3.36671972
H 6.06318028 5.09480052 4.13686140
H 4.30328943 4.83342728 5.61625446
H 5.64519411 4.84293796 6.38561862
H 3.52916247 1.16019221 5.57959762
H 2.64278823 14.49577701 5.57979975
H 2.14857461 5.07822562 4.82239401
H 2.13906425 5.07758043 6.36777062
H 5.17032103 2.72821739 1.09188134
H 4.26789814 1.47180427 1.08957980
H 5.21552815 2.73349628 5.56698266
H 5.65603449 1.47425609 4.78450143
H 0.39488431 4.79292873 7.82779777
H 1.29242687 3.53202107 7.82947373
H 1.76239303 4.82285824 2.56248085
H 0.41725661 4.82396985 3.32438224
H 2.63475953 6.37101467 1.10575834
H 3.52948898 5.11175506 1.10239549
H 2.12943858 1.17679765 0.31765741
H 2.13198757 1.18188085 1.86609590
H 6.02758218 1.15613063 2.53804149
H 6.48328789 14.49967038 3.31092146
H 6.02522649 1.19508047 8.59821235
H 6.01911511 1.18969797 7.05076632
H 6.53192700 6.38887491 7.83666499
H 7.41304972 5.11828364 7.83445708
H 1.78703205 1.43335000 7.04957226
H 1.79226746 1.43152895 8.59521899
H 9.51510829 1.42102686 4.11931672
H 8.17820125 1.43830910 3.34182887
H 12.06481058 4.83575157 1.08054441
H 13.40192849 4.83878086 0.30167363
H 13.80937805 5.11636966 2.54151567
H 14.26110875 6.37004897 3.32371046
H 13.42706103 4.80306559 4.78213412
H 12.97493396 3.54554736 5.55915118
H 10.39959234 14.47790818 5.56664557
H 11.27994674 1.14511294 5.57325690
H 10.39680020 6.37335758 5.58666516
H 11.29571637 5.11588512 5.57889442
H 13.42723007 1.47287819 1.89133497
H 12.98234981 2.73442509 1.11388993
H 13.42423943 1.42856210 4.80828491
H 13.42465871 1.44007043 6.35339516
H 9.54850218 4.80313512 7.04283989
H 9.09576669 3.53785476 7.80525430
H 9.54205708 4.80336225 4.13345958
H 9.09453663 3.53914607 3.36296227
H 9.90803707 5.08364934 1.87374149
H 9.91011807 5.07795576 0.32652013
H 9.94665728 1.19020489 1.87364525
H 11.28671946 1.19400708 1.10340208
H 14.27337650 14.49190082 3.33237730
H 15.17428046 1.14642672 3.34809800
H 13.82592370 1.18849091 8.60923052
H 15.16649177 1.18055884 7.83968887
H 13.79923539 5.11649480 7.02972387
H 14.24784125 6.37245365 7.81383208
H 8.17572417 1.43366805 7.80085409
H 9.51344005 1.41532698 7.02510236
H 1.77043249 1.45763124 11.50582520
H 1.32750529 2.71733973 12.28468779
H 4.29743269 4.83909470 10.05012823
H 5.64619518 4.84792206 9.29269558
H 6.02497803 5.08165876 13.10104803
H 6.02372047 5.09162359 11.55427016
H 5.65750633 4.79102693 15.35827183
H 5.20487172 3.52861717 14.58574271
H 2.14830472 1.14374210 13.74758820
H 2.59812423 14.48852263 14.52700752
H 2.17896745 5.08629917 15.35459414
H 3.51679372 5.07520194 14.58209431
H 5.66490052 1.47763616 10.86266952
H 5.21098334 2.73784976 10.09045932
H 4.28838173 1.42698953 14.52693350
H 5.63595907 1.43156914 13.76715308
H 1.75694388 4.82324551 17.60233516
H 0.41867887 4.82346899 16.82595230
H 1.76419279 4.81998860 13.10537856
H 0.42718952 4.82790884 12.32771939
H 2.13543927 5.07939353 9.29409170
H 2.15075790 5.08183147 10.84021423
H 2.63944962 14.49407860 10.05111774
H 3.53349796 1.15487364 10.06536696
H 6.52285246 14.50147053 12.30669640
H 7.41551295 1.15924983 12.31189216
H 6.01496117 1.19108319 17.57200678
H 6.01830153 1.17886918 16.02618974
H 7.41865157 5.11765103 16.79786933
H 6.52142139 6.37727972 16.80123353
H 1.32615251 2.71976038 16.77411762
H 1.76542749 1.45744921 15.99621763
H 9.52443206 8.73165551 11.52215117
H 8.18671994 8.73501273 12.29761505
H 12.06612297 12.14745296 10.06786316
H 13.40452229 12.13904252 10.84075544
H 13.81074098 12.40759517 13.08569189
H 14.24861412 13.67383567 12.31391264
H 12.98628048 10.83655503 14.56012700
H 13.43629893 12.09675018 15.33441885
H 9.92800491 8.45014411 13.76426596
H 10.37831647 7.19352450 14.54299570
H 9.95547609 12.37877022 15.33292148
H 11.29659536 12.37724217 14.56190101
H 12.94268224 10.03475051 10.06290836
H 12.05981766 8.76593482 10.06804121
H 13.40521502 8.73436975 13.76247081
H 12.06725315 8.73503530 14.53833791
H 9.52675278 12.14159889 17.57742858
H 8.19035390 12.13723775 16.80184034
H 9.10556945 10.83965565 12.32051494
H 9.55491669 12.09844826 13.09447475
H 9.93074642 12.42247506 10.85335664
H 10.37104068 13.68737269 10.07741869
H 9.92426615 8.45498061 9.27875548
H 10.37015515 7.19356090 10.05407535
H 13.82795880 8.48807311 11.52031236
H 15.16688698 8.47940415 12.29327422
H 13.82737109 8.47938014 16.00716074
H 15.16633737 8.47566962 16.77930808
H 14.26020782 13.66465754 16.80941974
H 13.81475908 12.40033070 17.57676800
H 9.09902388 10.03081228 16.78253479
H 9.54249820 8.76957769 16.00620815
H 1.32776087 10.02027132 12.32245209
H 1.77569528 8.75885920 13.09645961
H 4.29026580 12.10551621 10.05747648
H 5.18487621 10.84652360 10.06755745
H 7.41036139 12.38491687 12.28323327
H 6.06835495 12.39065905 11.51391164
H 5.67801326 12.13688047 13.77305511
H 5.67795498 12.14215732 15.31923847
H 3.52920981 8.45616213 14.54981333
H 2.63714042 7.19394211 14.55405652
H 3.52237719 12.38723126 14.55478516
H 2.18416477 12.37899402 15.32967431
H 4.30660704 8.72919327 10.05885873
H 5.64303432 8.74309601 9.27962796
H 5.66248697 8.76852856 13.76250076
H 5.21743666 10.02873552 14.53735987
H 0.42762415 12.12497340 16.80527478
H 1.76511831 12.12602278 17.57944286
H 1.75772659 12.13022476 13.07937845
H 0.41574596 12.13344631 12.31190225
H 2.14584954 12.38892833 10.81757525
H 2.14643524 12.38602248 9.27129609
H 2.60074442 7.19094967 10.08636273
H 2.16362349 8.45691839 10.85749053
H 6.04410485 8.45570542 11.52214180
H 6.48851719 7.19939349 12.30538927
H 6.06190897 8.48603463 16.00374823
H 7.39848406 8.49361959 16.77981042
H 6.04472019 12.41583250 17.57582074
H 6.48848029 13.68231240 16.81130393
H 1.32872224 10.01766828 16.77571194
H 1.77601991 8.75599515 16.00250240
