384

O 9.08901128 1.75714931 12.32027788
O 12.97368980 4.50425110 10.04989946
O 14.27353649 5.41571076 12.29220952
O 12.98681119 4.50680649 14.53811420
O 10.38117433 0.85349204 14.56008878
O 10.40649765 5.41743409 14.54752287
O 12.96238869 1.76533982 10.06540881
O 12.97695145 1.76301442 14.55158378
O 9.09983160 4.50626942 16.78132375
O 9.10339540 4.50178074 12.30505675
O 10.38622143 5.41964283 10.05129325
O 10.37200186 0.86011977 10.06809941
O 14.26826141 0.86551596 12.30265707
O 14.27707245 0.84675613 16.79702472
O 14.26824350 5.41207375 16.79115183
O 9.09602622 1.76693099 16.79629963
O 9.08223883 9.06263175 3.33776535
O 12.96919288 11.80685217 1.09920581
O 14.27540136 12.71207893 3.33340741
O 12.97349596 11.80654770 5.57354406
O 10.36685857 8.16077681 5.58549096
O 10.38256068 12.71365809 5.59112575
O 12.96456924 9.06584944 1.08866249
O 12.95693981 9.06537940 5.57145699
O 9.08373114 11.80978392 7.83057069
O 9.09255987 11.80453391 3.34720970
O 10.37595746 12.71324960 1.10632319
O 10.37777168 8.15780048 1.08783813
O 14.25065925 8.15484973 3.32922738
O 14.24143324 8.15744839 7.82162964
O 14.26250463 12.71906133 7.81485521
O 9.07123871 9.06874908 7.82880226
O 1.31541951 9.06264977 3.33168640
O 5.22089047 11.80242998 1.09447189
O 6.50062663 12.70780666 3.34019062
O 5.20531219 11.80371156 5.58172819
O 2.60549989 8.14573291 5.58230194
O 2.61064017 12.70878333 5.57688968
O 5.19265805 9.06270768 1.10370555
O 5.19059482 9.06384924 5.58945720
O 1.31317841 11.79844603 7.81824167
O 1.32965982 11.80341701 3.33077099
O 2.62865287 12.70748638 1.08722581
O 2.61428856 8.15043756 1.08712233
O 6.48898798 8.15809457 3.34544212
O 6.47923209 8.15604164 7.83557605
O 6.49768592 12.71096561 7.83186156
O 1.30040254 9.05620175 7.82158273
O 1.30655723 1.77033007 3.33953162
O 5.21000548 4.49771973 1.08528099
O 6.49357671 5.41997502 3.33136488
O 5.20589597 4.49649904 5.56975946
O 2.60284926 0.85171685 5.58308647
O 2.61589980 5.40035418 5.56877935
O 5.20308023 1.75888558 1.10346513
O 5.20090501 1.75350571 5.58709093
O 1.31939204 4.50275378 7.81596768
O 1.32247521 4.50823374 3.32604362
O 2.62025324 5.41139788 1.08589901
O 2.61626650 0.84855191 1.10046291
O 6.49758878 0.84587845 3.34574715
O 6.48581234 0.85059114 7.83655027
O 6.49084139 5.41079089 7.81799404
O 1.30188345 1.76093030 7.82045990
O 9.08525887 1.76985535 3.34020131
O 12.95892931 4.50470712 1.08632264
O 14.26322014 5.40860936 3.31867915
O 12.96681196 4.50928422 5.56124305
O 10.36945307 0.85676999 5.59241999
O 10.37804430 5.42321577 5.57427567
O 12.97274116 1.75954099 1.08745205
O 12.96277222 1.76668129 5.58109441
O 9.08469655 4.50485252 7.81977549
O 9.08744846 4.51296603 3.32986364
O 10.38132796 5.41317532 1.08035959
O 10.38386422 0.85740401 1.09872089
O 14.25562847 0.85055180 3.33632937
O 14.24947557 0.85320227 7.82286342
O 14.26272381 5.41490868 7.80430861
O 9.07044013 1.76507661 7.83189881
O 1.32994983 1.75557947 12.31388732
O 5.20860028 4.50549224 10.06279934
O 6.50688842 5.41102668 12.30532637
O 5.21615348 4.50355015 14.54925889
O 2.62487732 0.85514533 14.55510877
O 2.62313657 5.40807024 14.54857317
O 5.19415978 1.76689041 10.07681233
O 5.21200476 1.76124028 14.56647072
O 1.32213804 4.49859556 16.78843914
O 1.32862397 4.49574407 12.30582531
O 2.61370726 5.40514652 10.06514154
O 2.60825990 0.84659593 10.06162880
O 6.49614613 0.85237616 12.31891661
O 6.50478533 0.85378231 16.80596460
O 6.50871386 5.41164241 16.79304152
O 1.32397659 1.75870708 16.79421864
O 9.07297839 9.06461696 12.30619422
O 12.96830994 11.81679817 10.05910047
O 14.27466616 12.72282173 12.29853179
O 12.99409631 11.81026044 14.54816168
O 10.38001211 8.16471751 14.54890372
O 10.40245038 12.71346323 14.56324061
O 12.96059039 9.07200191 10.06418481
O 12.97218890 9.06594307 14.54421658
O 9.10019237 11.80505824 16.79396196
O 9.10094267 11.80980244 12.32164255
O 10.37938045 12.71925758 10.07207624
O 10.37276383 8.15823031 10.06151526
O 14.26716643 8.16102025 12.30238628
O 14.26308726 8.15162321 16.79001746
O 14.26934044 12.70979218 16.79969737
O 9.08125357 9.06514589 16.79323761
O 1.31883145 9.05751943 12.30701472
O 5.20449194 11.81065922 10.07757120
O 6.50794685 12.71693809 12.31269884
O 5.21644791 11.80589394 14.56014872
O 2.61429392 8.14733414 14.55322987
O 2.62419248 12.71173288 14.55431947
O 5.17677176 9.06843686 10.07352211
O 5.20346156 9.06271965 14.55679933
O 1.32699456 11.79416987 16.79289194
O 1.32677882 11.79691647 12.30921641
O 2.61610723 12.70316830 10.06063665
O 2.59756841 8.14273482 10.05986111
O 6.48362796 8.14774749 12.30521155
O 6.49659950 8.15407625 16.80593701
O 6.51022321 12.71240420 16.80015508
O 1.31767089 9.05744405 16.78494726
H 8.18119104 1.43687039 12.29799878
H 9.52139013 1.43018541 11.52404461
H 13.41246455 4.83354914 9.25826587
H 12.06909372 4.83343442 10.02560878
H 13.80117258 5.08741594 11.52001717
H 13.80866951 5.08232664 13.06712360
H 13.42330915 4.83295104 15.33240297
H 12.08480391 4.84502246 14.56193479
H 10.37882573 14.49232027 14.54408850
H 9.92293335 1.14441096 13.76423179
H 9.94433468 5.11710829 15.33757900
H 10.38250715 6.38013279 14.56173420
H 12.97689212 2.72847373 10.07191782
H 13.42350900 1.47440938 10.85922762
H 12.95507610 2.72594323 14.55020649
H 12.06134985 1.46483317 14.55434420
H 9.55380430 4.80321513 17.57745061
H 9.10938768 3.54326627 16.80090167
H 9.10975479 3.53909545 12.32849545
H 9.56343074 4.80187612 13.09578826
H 9.90961882 5.08910831 9.28215288
H 9.92583196 5.08593943 10.82847242
H 10.39884018 14.49941373 10.06740411
H 11.28629245 1.16344013 10.07314407
H 14.26297344 14.50463799 12.31980747
H 13.81065537 1.15885523 13.09780111
H 13.83802563 1.17722452 16.00640791
H 15.18143332 1.17811261 16.77230013
H 13.80477068 5.11336551 17.58060738
H 14.25394415 6.37507384 16.80646288
H 8.19003922 1.44055985 16.78346587
H 9.52474668 1.43082756 16.00168933
H 9.54006021 8.76731730 2.54380970
H 9.09183428 10.02574457 3.32112220
H 12.05271780 12.10165534 1.10161002
H 12.95129768 10.84383141 1.09704852
H 13.81491271 12.41413980 2.54176411
H 14.25961967 13.67498074 3.31825310
H 12.97902723 10.84351880 5.55532106
H 13.43205928 12.10376708 4.78052300
H 9.91390418 8.46231248 4.79063877
H 10.35827474 7.19804109 5.56118030
H 9.94712207 12.38458131 4.79738948
H 11.28924948 12.38982351 5.56419591
H 13.43054612 8.73346424 1.86353793
H 13.43855484 8.74264568 0.31538432
H 12.05004790 8.74170096 5.59281014
H 13.38768418 8.74154338 6.36967518
H 9.09276203 10.84656021 7.81310820
H 9.54585420 12.10624954 7.03898974
H 9.52379770 12.14018604 2.55367373
H 8.18672918 12.13152840 3.32781595
H 10.37391816 13.67614295 1.08235073
H 9.92639613 12.41452073 0.30864583
H 10.40083370 7.19485227 1.08739791
H 11.29409926 8.45479039 1.08788016
H 14.24453368 7.19186160 3.34680187
H 13.79064223 8.44866744 4.12286818
H 15.14551316 8.48899475 7.83698537
H 13.81097366 8.48974136 8.61677860
H 13.82781107 12.38859767 7.02123858
H 15.16584808 12.38524013 7.79681288
H 9.54487772 8.73956733 8.60038539
H 9.53697102 8.73547931 7.05447649
H 0.39994863 8.76463208 3.33539106
H 1.29387425 10.02568940 3.33229093
H 4.31497741 12.12867087 1.07056590
H 5.65632346 12.13069352 0.30037260
H 6.04812237 12.41280741 2.54255377
H 6.49242986 13.67092589 3.32459681
H 5.63730901 12.13550203 4.78734562
H 4.30084296 12.13422781 5.56486065
H 3.50703311 8.48404460 5.56195144
H 2.16800267 8.47479026 4.78991221
H 2.15529283 12.40396084 6.36901518
H 2.59222657 13.67142348 5.59918516
H 5.21361067 10.02572573 1.11274813
H 5.65311687 8.76719778 1.89624876
H 5.20230562 10.02699593 5.56749110
H 5.64912574 8.76280943 4.79782280
H 1.77630402 12.09624683 8.60842212
H 1.32186314 10.83551926 7.83820826
H 0.42768035 12.14069236 3.34755859
H 1.76191771 12.12897030 4.12779908
H 2.15751466 12.36936063 0.31826443
H 2.16235657 12.38045997 1.86398117
H 2.17230084 8.47911223 1.87716040
H 3.51605685 8.48851687 1.11386780
H 6.50435289 7.19486094 3.34088506
H 7.40617485 8.45099001 3.34071184
H 6.04732890 8.48651355 7.04055423
H 7.38495631 8.48275962 7.81634713
H 6.06120544 12.38505665 7.03765978
H 7.40161929 12.37866120 7.80846610
H 1.76868251 8.72233925 8.59393113
H 1.76976058 8.72749250 7.04741496
H 1.32698953 2.73318428 3.31219627
H 1.76376555 1.46175647 2.55030968
H 5.21793140 3.53451829 1.07364011
H 5.67259609 4.78904939 0.29244138
H 6.03082395 5.08702333 2.55507207
H 6.02580438 5.08181709 4.10228480
H 5.65758452 4.79892708 6.36479087
H 5.21479927 3.53370786 5.59524457
H 2.13852800 1.18459192 4.80785591
H 2.12885781 1.18104382 6.35403235
H 2.63555150 6.36330325 5.57379368
H 3.53193436 5.10305525 5.57150026
H 5.63767110 1.43321299 1.89861685
H 4.29972120 1.42525160 1.12094230
H 5.63157522 1.41837071 6.38064747
H 4.29407722 1.43007947 5.60373475
H 1.78090786 4.79220033 7.02192298
H 1.32081840 3.53975402 7.80306430
H 1.79545334 4.83498503 4.09909371
H 1.79249029 4.83972969 2.55323522
H 2.64556561 6.37442614 1.08751041
H 3.53465856 5.10883888 1.08219347
H 2.60476905 14.48771304 1.07779338
H 2.16291086 1.14877585 0.30570402
H 6.06435114 1.17221865 4.14144298
H 7.39973429 1.18253397 3.35981903
H 6.51098162 14.48965318 7.83517596
H 7.40146428 1.14974515 7.83251519
H 6.47947574 6.37375465 7.83499421
H 6.03509379 5.11685298 8.61394352
H 0.39763378 1.42994139 7.84493596
H 1.74102737 1.43308086 8.61229488
H 9.54448180 1.47361284 2.54720052
H 9.09483595 2.73275668 3.32154519
H 12.97774063 3.54179571 1.09948157
H 13.42490522 4.80070778 1.87592151
H 15.17046979 5.08601651 3.34136586
H 13.82937594 5.07616265 4.11188373
H 13.42647670 4.81209837 6.35174728
H 12.97234089 3.54644732 5.58894808
H 9.91758780 1.15861996 4.79725717
H 10.35991495 14.49615478 5.56882484
H 11.28315724 5.09407616 5.58907617
H 9.94558475 5.08749164 6.36634686
H 13.43528059 1.43014165 1.86531730
H 13.44922059 1.42997386 0.31813565
H 13.39347547 1.43349079 6.37565138
H 12.05739511 1.43877927 5.59893316
H 9.05928681 3.54193574 7.82018289
H 8.17024368 4.80672068 7.81635491
H 8.18173277 4.83972428 3.34774443
H 9.52026325 4.84360634 4.12382090
H 9.94516795 5.09081159 1.87591678
H 11.28500592 5.07916387 1.10375782
H 11.29104330 1.18037404 1.07503031
H 9.95084929 1.18677786 0.30407742
H 13.81694301 1.17706058 4.12893740
H 15.15715210 1.18890099 3.35634961
H 13.79298404 1.14950082 8.61757571
H 14.24130912 14.49205928 7.83629367
H 15.17901592 5.11812639 7.80799028
H 14.28116884 6.37789597 7.81266873
H 9.54657220 1.44151234 8.60424283
H 9.53933356 1.43617552 7.05741256
H 0.41284750 1.46115592 12.31024476
H 1.31023257 2.71865073 12.30750061
H 5.64606557 4.83133360 10.85642179
H 4.30283861 4.83182618 10.08550493
H 6.52723027 6.37398508 12.30442246
H 7.42218605 5.11204278 12.30725965
H 5.65031402 4.83263439 13.75496071
H 4.31146903 4.83278678 14.53077824
H 2.16226738 1.14989553 13.76326101
H 2.61374479 14.49429738 14.53980154
H 2.15253899 5.07811976 13.77588263
H 2.15299837 5.08157592 15.32320289
H 5.20901498 2.72956316 10.05143233
H 5.65313503 1.46186172 9.28694344
H 5.19027973 2.72412245 14.56002500
H 4.29646001 1.46140977 14.56000945
H 1.76195740 4.83146909 17.57801146
H 0.41798551 4.82960431 16.81328223
H 0.42551420 4.82920614 12.28068268
H 1.76533124 4.82370809 11.51205653
H 2.16304440 5.10375851 9.26905968
H 2.59916443 6.36804832 10.04487481
H 2.17739490 1.17396310 10.85832217
H 3.51119092 1.18154350 10.07850444
H 6.02288467 1.18349502 11.54836660
H 6.02983535 1.18023793 13.09539854
H 6.03229645 1.18957914 16.03656906
H 6.03567616 1.17687461 17.58257350
H 7.41489175 5.08590376 16.77008704
H 6.07541816 5.08826450 15.99613462
H 1.33526042 2.72177502 16.78033729
H 1.78447128 1.46311591 16.00170470
H 8.16726968 8.73905736 12.28138532
H 9.51121810 8.73104404 11.51613655
H 13.43834133 12.14097833 9.28346262
H 13.43954319 12.14849118 10.83071778
H 13.84010673 12.39410908 13.09294251
H 15.17726750 12.38767281 12.31826112
H 12.08881719 12.13867578 14.57033675
H 13.42534436 12.13718786 15.34522523
H 9.90519899 8.48709456 13.77569461
H 9.90833562 8.49143958 15.32245810
H 9.92952112 12.38134230 15.33409439
H 9.93740068 12.37997749 13.78849567
H 13.42042915 8.77410838 10.85616063
H 12.97325521 10.03490429 10.08091027
H 12.95723847 10.02909804 14.54601861
H 12.05395832 8.77494257 14.54764357
H 9.07368304 10.84209506 16.80109967
H 8.18554894 12.10679975 16.79704473
H 9.09973391 10.84707649 12.29421177
H 9.55385707 12.10787185 11.52551514
H 9.94324869 12.39041651 9.27872968
H 11.28522477 12.39259779 10.04730584
H 11.28642636 8.46273352 10.06930696
H 10.39986911 7.19550288 10.05933766
H 14.25342016 7.19813137 12.31469336
H 13.80170895 8.45643270 13.09239256
H 15.16946349 8.47620002 16.76391853
H 13.82459450 8.48237791 15.99889715
H 14.26739910 13.67288821 16.81681077
H 13.80835493 12.41561091 17.59221622
H 9.52264025 8.73478612 17.58317376
H 8.17784382 8.73214412 16.82090892
H 0.41246724 8.73117131 12.32780917
H 1.75308140 8.72597016 13.09986263
H 5.68101559 12.13766656 10.84821178
H 5.67383203 12.13494683 9.30145343
H 6.52594442 13.67998343 12.31888783
H 7.42414631 12.42040362 12.31839893
H 5.65055324 12.13395180 13.76558946
H 4.31007225 12.13094874 14.53871950
H 3.52833394 8.45031419 14.55267550
H 2.63913543 7.18450399 14.54879572
H 2.15326782 12.38098626 15.32676483
H 2.15764028 12.37764062 13.78100799
H 5.63838389 8.76798525 9.28315160
H 5.19894013 10.03129668 10.05609707
H 5.65923007 8.76427965 15.35071215
H 5.21695260 10.02552944 14.57462042
H 0.41181513 12.09357039 16.79817500
H 1.30560247 10.83102830 16.78840115
H 1.78402080 12.09683348 11.51640337
H 1.33393637 10.83406873 12.28656870
H 2.63238293 13.66625681 10.06239555
H 3.53460563 12.41270852 10.06845639
H 3.49896917 8.48170862 10.08038950
H 2.16075356 8.46639305 10.85493453
H 6.02184252 8.47588635 13.08396406
H 6.00720880 8.47909062 11.53669028
H 6.48707844 7.19097206 16.81625078
H 6.03443237 8.44687544 17.59826887
H 6.50032475 13.67558257 16.78393776
H 6.05318632 12.41808367 16.00496181
H 1.79058834 8.72453590 16.01453300
H 1.78518654 8.73028694 17.56090282
