384

O 9.08847370 1.75949303 12.30567635
O 12.98475903 4.49801060 10.06993816
O 14.26563682 5.40756388 12.31751040
O 12.96334873 4.51241366 14.55337486
O 10.37849853 0.85973976 14.55961827
O 10.37845971 5.41753869 14.54977308
O 12.97550967 1.75491057 10.06621989
O 12.96330684 1.76734083 14.55976418
O 9.08849734 4.51704034 16.79497514
O 9.09398832 4.50516073 12.29410830
O 10.39588198 5.40836375 10.05565423
O 10.38481084 0.85139410 10.06109269
O 14.25283277 0.85609453 12.31505983
O 14.26334694 0.86130812 16.79994890
O 14.26312808 5.42319268 16.78923035
O 9.07936078 1.77617871 16.78769675
O 9.08241842 9.07156605 3.34455167
O 12.98956593 11.81522927 1.10444913
O 14.27798090 12.72044522 3.34302965
O 12.97106695 11.81754588 5.57722740
O 10.37753141 8.15555737 5.58912257
O 10.38616311 12.71956716 5.58545813
O 12.96474010 9.07398990 1.10534574
O 12.96463842 9.07166908 5.59322861
O 9.09434094 11.80013339 7.82663702
O 9.09230977 11.81031273 3.33961663
O 10.39225858 12.72058363 1.09826147
O 10.37951925 8.16946822 1.10110987
O 14.26078198 8.16447953 3.34499514
O 14.26991328 8.15370141 7.82724670
O 14.27218283 12.71776188 7.82334310
O 9.06727766 9.05951558 7.83452651
O 1.31823241 9.06452233 3.34223554
O 5.20610196 11.81260281 1.08651466
O 6.50468411 12.71488711 3.32872386
O 5.21128659 11.79530879 5.56916427
O 2.61451772 8.15265897 5.58495917
O 2.63083733 12.70998562 5.58562632
O 5.20573442 9.06941525 1.09986703
O 5.19527882 9.05970556 5.57413408
O 1.32789178 11.80695197 7.82009460
O 1.33637745 11.80357115 3.33589096
O 2.61471884 12.71973237 1.08397560
O 2.60917240 8.15456332 1.09753188
O 6.49242250 8.15106740 3.33649765
O 6.47914134 8.13756648 7.82455612
O 6.50661920 12.68885807 7.81417824
O 1.32498886 9.06355626 7.82757258
O 1.32057150 1.76237660 3.33832788
O 5.20688996 4.50208165 1.07322403
O 6.49784665 5.40641289 3.32515188
O 5.21026601 4.49038473 5.56862976
O 2.61718086 0.85179376 5.58111253
O 2.61807894 5.40959846 5.57903395
O 5.20459367 1.76434623 1.08037868
O 5.21046836 1.74463065 5.56642302
O 1.32750958 4.49816792 7.82203381
O 1.32872045 4.50625955 3.32860881
O 2.62095692 5.41290985 1.07850069
O 2.61611313 0.86020770 1.08813391
O 6.49819138 0.85765905 3.31833095
O 6.49374208 0.83327758 7.81944058
O 6.50442912 5.39128154 7.81750343
O 1.33263507 1.75718825 7.83071091
O 9.09032533 1.76331094 3.32868387
O 12.97551799 4.51873014 1.09736880
O 14.27051641 5.41929435 3.34398214
O 12.97516869 4.50171420 5.58273300
O 10.38476887 0.85875947 5.58427331
O 10.38452143 5.41285434 5.57450226
O 12.96940961 1.77261959 1.10077728
O 12.97685761 1.76224421 5.59044648
O 9.09347449 4.50586127 7.81311186
O 9.08796700 4.50870881 3.32404984
O 10.38713909 5.42900048 1.08888036
O 10.37953610 0.86377490 1.08189135
O 14.25764714 0.86337589 3.34610194
O 14.27128538 0.85834561 7.82659545
O 14.27346944 5.41132324 7.82356889
O 9.07707472 1.76470725 7.82762753
O 1.30947050 1.75996138 12.31314247
O 5.20478422 4.48291878 10.04959951
O 6.50060883 5.40340975 12.28704885
O 5.21489350 4.50863721 14.53642023
O 2.60271644 0.84260803 14.55001034
O 2.62506795 5.41756988 14.54572291
O 5.20380596 1.74789356 10.06863031
O 5.19232340 1.76137649 14.53576821
O 1.32117826 4.50592326 16.78065592
O 1.32149293 4.49923238 12.31371506
O 2.61611924 5.39768277 10.06852285
O 2.61504664 0.84365336 10.07799790
O 6.49927048 0.83869355 12.30448428
O 6.49454419 0.86070860 16.77745672
O 6.49929209 5.41769076 16.77983545
O 1.30816636 1.76638392 16.79132882
O 9.07814423 9.06625418 12.31622103
O 12.97849645 11.80203620 10.06108189
O 14.26507459 12.71319109 12.30544061
O 12.96506703 11.81046241 14.54922372
O 10.37079685 8.16295235 14.56774294
O 10.37421112 12.72268623 14.55243437
O 12.96601610 9.05841730 10.06617331
O 12.96175630 9.07076106 14.56247547
O 9.09166682 11.80995629 16.80216802
O 9.09114166 11.80409573 12.30668286
O 10.39032680 12.71346735 10.05830671
O 10.37279228 8.15239371 10.07005782
O 14.24424546 8.15482501 12.31846838
O 14.24651032 8.16314130 16.81064648
O 14.26155782 12.72370814 16.78798110
O 9.07243344 9.07028473 16.80927041
O 1.29797138 9.05869480 12.31677648
O 5.20322093 11.78782192 10.05795188
O 6.50684154 12.69886702 12.29897452
O 5.21281785 11.80335480 14.55260813
O 2.60156567 8.15866067 14.55925377
O 2.62508904 12.70360553 14.54500766
O 5.18624472 9.04981356 10.06898299
O 5.18878381 9.06306049 14.54992803
O 1.31652558 11.80192708 16.78791704
O 1.32002048 11.79857931 12.31186848
O 2.61738627 12.70518465 10.07237649
O 2.59895338 8.14044754 10.08028068
O 6.49268335 8.14726394 12.31158712
O 6.48809742 8.15904539 16.78930834
O 6.50440383 12.72166107 16.78530301
O 1.30458054 9.06446633 16.80339386
H 8.18603367 1.42440080 12.32833720
H 9.52622496 1.43442200 13.09951980
H 12.07006550 4.80008881 10.06673316
H 12.95840237 3.53523911 10.06380407
H 15.17249749 5.08420112 12.29660898
H 13.83328898 5.07771020 11.52234634
H 12.97466807 3.54929939 14.53893670
H 13.42598485 4.80680161 13.76110474
H 10.39830211 14.49881631 14.55559044
H 11.29485603 1.15687380 14.55851655
H 11.28306078 5.08694225 14.52759327
H 9.94377448 5.09104472 13.75493408
H 13.41027814 1.42866867 9.27070678
H 12.06922454 1.42999574 10.04224166
H 13.42926536 1.43351012 13.78586005
H 13.43731154 1.44372106 15.33333034
H 9.54534078 4.81714692 16.00167251
H 9.10002618 3.55410970 16.77121433
H 8.17822649 4.80386735 12.29474050
H 9.06969388 3.54245218 12.29907802
H 9.93099131 5.10594994 10.84319633
H 10.37854218 6.37110164 10.07849424
H 9.91672494 1.17509768 10.83796373
H 9.91204775 1.18424943 9.29087760
H 13.79724517 1.15029413 11.51887636
H 14.24911029 14.49537150 12.29540948
H 15.16625542 1.19688649 16.82266382
H 13.82481237 1.19096304 17.59144130
H 13.82671539 5.08773330 15.99875934
H 15.16847134 5.09578773 16.76623205
H 9.55016468 1.44362682 16.01557897
H 9.54731043 1.44362272 17.56103399
H 9.55056521 8.74323303 4.11920759
H 9.55338759 8.74148588 2.57206698
H 12.99006564 10.85222274 1.07920884
H 13.43740169 12.11505219 0.30626890
H 15.18367120 12.39401092 3.32415446
H 13.84730552 12.38963710 2.54711834
H 12.98661029 10.85483775 5.56150953
H 13.43798753 12.11575087 4.78893752
H 11.27953365 8.49158030 5.61569252
H 9.93437227 8.48132621 6.37948676
H 9.94529840 12.38674834 4.79654666
H 11.29182118 12.39229879 5.55617504
H 13.39591400 8.73920460 0.31128821
H 12.05719903 8.75135433 1.08226307
H 13.44062658 8.74324849 6.36338246
H 13.42722184 8.73806605 4.81728595
H 9.56566977 12.13018995 8.59934075
H 9.56476176 12.12716495 7.05240413
H 8.17683036 12.10996236 3.33418789
H 9.06693889 10.84739475 3.34167556
H 9.95597794 12.39084027 1.89106019
H 11.29864909 12.39660760 1.12243610
H 9.91040458 8.46765944 0.31429764
H 10.36727244 7.20645834 1.08025779
H 13.79704425 8.46482560 2.55565134
H 14.24614511 7.20165869 3.32513450
H 15.17317835 8.48711241 7.84933473
H 13.83121058 8.48215607 8.61928432
H 13.80607859 12.38913357 7.04732543
H 13.80110636 12.38339602 8.59400405
H 8.15111449 8.76318518 7.82842190
H 9.04987338 10.02255786 7.83000718
H 0.41155138 8.74009377 3.32210853
H 1.75134661 8.73137042 2.54920465
H 5.64541353 12.14685756 0.29745899
H 4.30101038 12.14060792 1.06164388
H 6.03260060 12.39014409 2.55450293
H 6.03465084 12.38444278 4.10155912
H 4.30822841 12.12958594 5.60011372
H 5.65505269 12.12000344 6.36000580
H 2.17688805 8.47461312 4.78978989
H 3.51810466 8.48626547 5.55920111
H 2.16487516 12.41493695 6.37535787
H 2.61273697 13.67297153 5.59823315
H 5.21300568 10.03236699 1.07545315
H 5.65323283 8.76926105 0.30178870
H 5.21269529 10.02290332 5.55731395
H 5.65774293 8.76100620 4.78371549
H 0.42141714 12.13161422 7.84135434
H 1.76163142 12.13411295 8.61514175
H 1.34200168 10.84068673 3.35843044
H 1.79308670 12.10257795 4.12906398
H 2.14210474 12.38652608 0.31392156
H 2.15483743 12.38458054 1.86096248
H 2.64244665 7.19195732 1.09595953
H 3.52145980 8.46267851 1.09885368
H 6.06118973 8.48610939 2.54269060
H 7.39837690 8.47671573 3.31950967
H 6.00414934 8.45752858 8.59884203
H 6.01069619 8.46841827 7.05124050
H 7.42473483 12.39659287 7.81962827
H 6.52511121 13.65165503 7.82002388
H 1.78041206 8.76591230 7.03277864
H 1.33707516 10.02638365 7.80888405
H 1.30237038 2.72539935 3.33631716
H 0.40347785 1.46839602 3.33837753
H 5.65963497 4.80076950 1.86891975
H 5.21637631 3.53881424 1.09269442
H 6.48009821 6.36921802 3.34203362
H 6.04111417 5.10522094 4.11775998
H 5.66981941 4.78290167 6.36281332
H 5.21822635 3.52741601 5.58427944
H 2.14615494 1.18248734 4.80872572
H 2.15032695 1.18530009 6.35475991
H 2.64759501 6.37233534 5.57843512
H 3.53104335 5.10327891 5.57689626
H 5.63821815 1.42921396 1.87265399
H 4.29924306 1.43552647 1.10114658
H 4.30293718 1.42254588 5.58900682
H 5.64329473 1.41312318 6.36012439
H 0.42456029 4.83274419 7.80501831
H 1.76284602 4.82871365 7.02895124
H 1.76490289 4.83551763 4.12158298
H 0.42491146 4.83785185 3.35105445
H 2.18625128 5.08639474 1.87341358
H 3.52325749 5.07629634 1.09672456
H 2.59965267 14.49934336 1.10353970
H 2.15302730 1.15777381 1.87841334
H 6.04109090 1.14926248 4.11472432
H 6.49349164 14.49664337 3.33661690
H 7.39447883 1.17388008 7.83669823
H 6.05807332 1.16101391 8.61311947
H 7.42415519 5.10462592 7.81444439
H 6.51362869 6.35423180 7.81691668
H 1.31019363 2.72018860 7.82724484
H 0.41683707 1.45884130 7.82455733
H 9.07002487 2.72625232 3.32875697
H 8.17381678 1.46750841 3.32919647
H 12.07276664 4.85360889 1.07508577
H 13.41222382 4.84406175 0.30308956
H 13.80213296 5.08301246 4.11547582
H 13.80239820 5.09159649 2.56869556
H 12.98683405 3.53879397 5.60454109
H 13.43161975 4.80277387 6.37544136
H 10.37550450 14.49763502 5.56548420
H 9.92707231 1.15559172 4.79097642
H 10.40813257 6.37569851 5.57835541
H 11.29945935 5.11194425 5.57755439
H 12.94781801 2.73541669 1.09573003
H 12.05349209 1.47486998 1.09418789
H 13.40816073 1.43565736 4.79298270
H 12.07059687 1.43688063 5.56836749
H 9.56584771 4.83208489 8.58645079
H 9.56458051 4.83453598 7.03968955
H 8.18405644 4.84082148 3.34793798
H 9.52561190 4.83736656 4.11638220
H 9.91614839 5.09927438 1.86159714
H 9.92060711 5.09503337 0.31524707
H 10.37573447 14.50317270 1.10769757
H 9.92249420 1.16311735 1.87523545
H 14.25771857 14.50262249 3.32193538
H 13.80156983 1.16199936 2.55204248
H 14.26286999 14.49737639 7.80758432
H 13.81360195 1.15402683 7.03193758
H 14.26252585 6.37418154 7.84717078
H 13.81833261 5.10972991 8.61703117
H 9.53628953 1.45972137 7.03790864
H 9.09613356 2.72746165 7.80237131
H 0.39253404 1.46537997 12.31087393
H 1.29408506 2.72304627 12.31600385
H 5.67872075 4.81075178 9.27763317
H 5.66999518 4.81775062 10.82367666
H 6.48921953 6.36612547 12.31240256
H 6.04990246 5.10201017 13.08326594
H 5.21392638 3.54568987 14.55440332
H 5.67282381 4.79979328 15.33239218
H 2.13389836 1.17579906 15.32217803
H 2.13270926 1.17180226 13.77626208
H 2.63945890 6.38055206 14.54924147
H 3.54184519 5.12255371 14.54507687
H 5.18423267 2.71115744 10.05957561
H 4.28705934 1.45249185 10.07034792
H 5.63061183 1.43208440 15.32759539
H 4.28766578 1.43254928 14.56077973
H 1.79596620 4.83531284 16.01005900
H 1.78834558 4.83625847 17.55537930
H 1.79312808 4.83219163 13.08470145
H 1.79282081 4.82216859 11.53824971
H 2.17763397 5.06913872 9.27627703
H 3.52137998 5.07042792 10.04024882
H 2.14155755 1.17239414 10.84973789
H 2.14656020 1.17325024 9.30358817
H 6.03366540 1.17282771 11.53007867
H 6.02402464 1.16750341 13.07496109
H 7.39685235 1.19733280 16.79518883
H 6.06005112 1.18789448 17.57231514
H 6.06602354 5.08615372 17.57358183
H 7.40624876 5.09368807 16.80149796
H 1.77218038 1.46696893 17.58030367
H 1.33067383 2.72938738 16.80410605
H 9.54039525 8.76998623 13.10720961
H 9.09446276 10.02941075 12.32883057
H 12.98270505 10.83907910 10.08405523
H 13.43504394 12.09920082 10.85538830
H 15.17068209 12.38650864 12.33041823
H 13.82746624 12.38863219 13.09951164
H 13.39941400 12.14666063 15.34041098
H 12.05977825 12.13822182 14.56628830
H 11.28574030 8.46368222 14.56618804
H 10.39575340 7.20025483 14.56103395
H 9.90644837 12.39549348 13.77670478
H 9.90700681 12.38764560 15.32494233
H 12.05891505 8.73525012 10.08260264
H 13.39517534 8.72364759 10.86075895
H 13.41744820 8.77315359 13.76801005
H 12.96794884 10.03381850 14.54288821
H 9.09529015 10.84691942 16.82367228
H 9.55488409 12.10656377 17.59258616
H 8.18552754 12.13170795 12.27664545
H 9.53177299 12.13214398 11.51584939
H 11.30563969 12.41411895 10.06484321
H 10.41097260 13.67628004 10.05943470
H 9.90678013 8.48469477 10.84446390
H 9.89664341 8.47859786 9.29885352
H 14.27170920 7.19223107 12.32075583
H 15.15904754 8.45680230 12.31220383
H 13.79908268 8.46790292 16.01385872
H 14.24155920 7.20033104 16.78043776
H 15.17603891 12.42191391 16.78356952
H 14.28716095 13.68672909 16.79671985
H 8.16647503 8.74430620 16.78066977
H 9.51173416 8.74120985 16.01775465
H 1.31909749 10.02154189 12.29352505
H 1.75620428 8.75229800 11.52699059
H 5.20327210 10.82456649 10.04647658
H 5.66618721 12.07594036 9.26443173
H 6.04390432 12.39436165 11.51120925
H 6.48603441 13.66164105 12.27938268
H 5.68120570 12.12483584 13.77516292
H 5.68815446 12.13420744 15.32246677
H 2.12746900 8.47725043 15.33463405
H 2.12787083 8.48470537 13.78674561
H 3.54402408 12.41511793 14.54945989
H 2.63582760 13.66673709 14.54803808
H 4.28271637 8.71753186 10.09580570
H 5.62788742 8.72548519 10.86087305
H 5.17617219 10.02617676 14.55283550
H 4.27016543 8.77384955 14.55232125
H 1.32193954 10.83875607 16.77523275
H 1.78197650 12.09334517 15.99702132
H 1.78858945 12.12815636 11.53736094
H 1.79720714 12.12570757 13.08220823
H 3.53191948 12.40309736 10.06263810
H 2.64125760 13.66797272 10.07488322
H 2.59200529 7.17756208 10.05549845
H 2.15258735 8.44191482 9.28190611
H 7.39613985 8.48055330 12.33393226
H 6.05419759 8.48052527 13.10151198
H 6.48179487 7.19599298 16.77304724
H 6.02390257 8.45351479 15.99852480
H 6.52763135 13.68461999 16.78541484
H 7.41950370 12.42137995 16.80023755
H 1.74544601 8.73427900 17.59341282
H 0.39945297 8.73678663 16.82895676
