384

O 9.07415231 1.76441582 12.31279066
O 12.97202458 4.49334761 10.06640792
O 14.25836442 5.40881283 12.31649636
O 12.97036893 4.52113040 14.56091092
O 10.37854318 0.84745752 14.54967203
O 10.38314057 5.41611829 14.54803310
O 12.95972285 1.75601939 10.06685849
O 12.95463963 1.77931344 14.55245435
O 9.08807585 4.50311027 16.79374208
O 9.08680211 4.50511674 12.30728620
O 10.38760869 5.41114216 10.06462757
O 10.36940269 0.85200278 10.06628157
O 14.24925347 0.85910988 12.31632164
O 14.25678368 0.85585691 16.78649490
O 14.27458720 5.41565343 16.80567040
O 9.08598196 1.76124455 16.79161188
O 9.08837460 9.06262524 3.34053603
O 12.98535066 11.81297278 1.09727199
O 14.28068250 12.70618346 3.34287525
O 12.97485559 11.78796324 5.58034003
O 10.37208767 8.15337271 5.58690217
O 10.38844880 12.70880066 5.57591772
O 12.98517856 9.06916158 1.10167315
O 12.96678673 9.04643303 5.58297056
O 9.09517512 11.80167762 7.82365963
O 9.09138236 11.80306812 3.33244816
O 10.38838766 12.71205536 1.08904649
O 10.39004460 8.15667329 1.09923804
O 14.26806601 8.15139300 3.33866744
O 14.26129057 8.14664389 7.83147684
O 14.26164644 12.70681601 7.82658275
O 9.07641361 9.06064516 7.82224181
O 1.32667988 9.06409033 3.32950714
O 5.22487911 11.81201566 1.09253254
O 6.50380903 12.71818043 3.33904329
O 5.20795649 11.79683619 5.57521328
O 2.60990120 8.14683109 5.57868135
O 2.61631610 12.70871782 5.57506906
O 5.21277053 9.06808024 1.09528394
O 5.20418813 9.05222385 5.58597379
O 1.32185957 11.80585472 7.81249428
O 1.33896892 11.80223662 3.33139306
O 2.63602590 12.70703165 1.08883628
O 2.62272317 8.15781117 1.09189478
O 6.49859824 8.15215705 3.33690909
O 6.49787267 8.15094415 7.83640431
O 6.50022142 12.71100917 7.82341040
O 1.31211678 9.05988925 7.82352671
O 1.32078001 1.75667055 3.33011498
O 5.21630361 4.50826043 1.08458217
O 6.49840732 5.41262656 3.34168509
O 5.20419127 4.50719539 5.58601645
O 2.62139394 0.84742619 5.57717198
O 2.60939726 5.40484746 5.57693457
O 5.19905012 1.76635180 1.08810581
O 5.20181211 1.76610275 5.57584795
O 1.31365648 4.48908276 7.81804707
O 1.33036853 4.50485053 3.32178449
O 2.62765223 5.41305475 1.08585380
O 2.61923003 0.84760770 1.08802439
O 6.49501871 0.85400808 3.33186739
O 6.48438841 0.85272720 7.82250432
O 6.50741969 5.41419777 7.83061717
O 1.30944413 1.75131812 7.81724167
O 9.08965637 1.75407937 3.32447399
O 12.97371362 4.49637279 1.10128534
O 14.27071601 5.40817616 3.34073231
O 12.95792201 4.50621442 5.57530651
O 10.37509300 0.85300115 5.57722751
O 10.37123472 5.41046458 5.57635625
O 12.97310530 1.75312208 1.09981372
O 12.96216642 1.76858248 5.57849945
O 9.09498105 4.49407770 7.82367549
O 9.08690457 4.49787684 3.32980492
O 10.38800951 5.41492810 1.09360052
O 10.38767113 0.84700016 1.08232617
O 14.26546919 0.85168502 3.34890658
O 14.24899528 0.84783418 7.81923110
O 14.25814241 5.40426387 7.81608284
O 9.07767376 1.75463062 7.82011278
O 1.30544764 1.76329573 12.30049578
O 5.19534212 4.50663592 10.07068560
O 6.49948167 5.42362995 12.30832752
O 5.19819831 4.51318309 14.54737374
O 2.59618602 0.85868492 14.54422642
O 2.61039893 5.42457451 14.54090636
O 5.18528938 1.76257970 10.06545810
O 5.18021119 1.76777428 14.55503452
O 1.32571157 4.50528655 16.78822484
O 1.31179850 4.50685917 12.30439207
O 2.60501277 5.41419206 10.05462971
O 2.60125440 0.85367543 10.05870918
O 6.47817787 0.86102835 12.31143360
O 6.49184753 0.86714471 16.78693640
O 6.50448809 5.41742741 16.78390037
O 1.31373307 1.76300864 16.79028933
O 9.08473922 9.06415298 12.31972483
O 12.97298287 11.80385741 10.07350990
O 14.27183179 12.71904036 12.31527166
O 12.97731966 11.80469697 14.55808525
O 10.38362309 8.15895481 14.56176164
O 10.38518289 12.70868192 14.54841282
O 12.95733696 9.06728927 10.06910372
O 12.97535898 9.05946255 14.55930186
O 9.09110298 11.81127100 16.79532517
O 9.09763659 11.80002000 12.30054373
O 10.38316174 12.71502730 10.06655583
O 10.36229425 8.15380445 10.07419593
O 14.25593138 8.15052771 12.30664080
O 14.26716535 8.15377086 16.79891422
O 14.27220542 12.71452311 16.79925532
O 9.08599251 9.06848667 16.80473989
O 1.30485958 9.06574987 12.29502766
O 5.20261945 11.80606606 10.06831705
O 6.50513457 12.72123779 12.30360856
O 5.20908586 11.81035341 14.54961411
O 2.59628509 8.16729234 14.54803549
O 2.61873345 12.71838185 14.55028954
O 5.20108733 9.06277014 10.07486335
O 5.19272564 9.07003477 14.56241645
O 1.33368669 11.80146401 16.79984827
O 1.32228632 11.80632298 12.30851675
O 2.60887933 12.71244867 10.06080497
O 2.61570795 8.15872809 10.06157405
O 6.49357021 8.16196705 12.32097676
O 6.49531276 8.15319145 16.80010617
O 6.50428030 12.72663994 16.78460181
O 1.31506547 9.06414114 16.79911213
H 9.05891931 2.72749978 12.31074771
H 8.15675243 1.47209324 12.31652820
H 13.42772273 4.79103117 10.86062352
H 12.97647992 3.53035180 10.08605323
H 15.17415266 5.11010076 12.31200310
H 14.28051726 6.37172697 12.30269677
H 13.44178897 4.85109661 13.78803742
H 13.44527172 4.84027615 15.33551578
H 9.93547823 1.17844374 13.76114441
H 11.27953593 1.18749576 14.52636315
H 11.30132410 5.12452603 14.55547777
H 10.39875003 6.37904231 14.55635548
H 13.39001297 1.42762194 9.27046642
H 12.05448424 1.42718039 10.05221547
H 12.96826616 2.74263787 14.53861167
H 13.41531107 1.48386479 13.75980978
H 9.10276346 3.54039350 16.76882899
H 9.54736692 4.80735306 16.00363881
H 9.55936529 4.83101154 11.53407427
H 9.55616723 4.83657832 13.08042403
H 11.29129670 5.07860457 10.04580963
H 9.95262333 5.08021072 9.27163378
H 9.91143995 1.15135505 10.85866900
H 10.36341233 14.49101540 10.08882680
H 13.81363311 1.17686965 11.51836662
H 15.15523453 1.18486019 12.28937406
H 15.16154727 1.18556940 16.76856190
H 13.82103554 1.19597922 15.99795670
H 15.17859913 5.08369662 16.82550693
H 13.83603860 5.08017891 17.59457263
H 9.55711305 1.42799747 17.56271801
H 9.55152000 1.43038120 16.01610230
H 9.55031096 8.76387650 2.55007568
H 9.09725153 10.02560515 3.32148129
H 12.07830568 12.13557336 1.07493670
H 13.41833389 12.14680501 0.30384402
H 14.26386073 13.66907038 3.33107330
H 13.82177265 12.41376762 2.54793242
H 13.43575618 12.08787652 4.78970983
H 12.98927940 10.82500713 5.56193638
H 9.94258299 8.48327726 4.79025451
H 11.27953363 8.47565203 5.56762264
H 11.29103170 12.37275695 5.59103128
H 9.95558353 12.37984316 6.37054321
H 13.43549688 8.76932219 0.30480594
H 12.99248243 10.03214846 1.07915675
H 13.43746272 8.71516566 4.81086991
H 13.43574142 8.71984436 6.35814679
H 8.19189475 12.13499414 7.83860818
H 9.52780546 12.13064325 8.61878884
H 9.52910296 12.13033577 4.12541885
H 8.18738713 12.13433793 3.35502865
H 9.92037990 12.38339655 1.86385388
H 9.91486212 12.38244323 0.31758052
H 10.41060671 7.19375434 1.09934589
H 11.30537956 8.45491497 1.09672841
H 13.83345551 8.48828562 2.54743868
H 15.17211309 8.48261155 3.31886855
H 13.81886012 8.48216166 8.61830749
H 15.16484844 8.47956664 7.85673020
H 13.81078867 12.39681386 7.03386161
H 14.24253262 13.66923712 7.79730168
H 9.53784009 8.76571105 7.02970394
H 9.09220219 10.02363970 7.81055432
H 1.77682603 8.75727840 4.12368589
H 1.34378054 10.02691508 3.35542823
H 5.20421786 10.84894141 1.08824450
H 4.30752111 12.10655634 1.08722842
H 6.03088559 12.38154955 4.10755422
H 6.04052228 12.38768027 2.56152913
H 5.18457919 10.83391844 5.57657163
H 4.29256148 12.09605756 5.57810887
H 2.59717917 7.18391661 5.60090872
H 2.15549243 8.44850191 6.37232190
H 2.15734686 12.41607778 6.36985723
H 2.61304644 13.67180650 5.59136476
H 4.30633920 8.74252585 1.07842920
H 5.64233215 8.73151269 0.30148527
H 5.63683554 8.72690941 4.78950756
H 4.30133696 8.71753459 5.56938948
H 1.75432741 12.13294876 8.60835448
H 0.41639621 12.13342645 7.83255090
H 1.77085107 12.13426714 4.12607417
H 0.43389595 12.13108404 3.35056986
H 2.16872368 12.37772189 1.86399335
H 2.16207352 12.37705130 0.31769687
H 2.15755729 8.49080453 1.86693765
H 2.14770512 8.48441239 0.32046418
H 7.40297538 8.48300980 3.31978646
H 6.06578392 8.48702585 2.54413264
H 6.05821975 8.47306328 7.04239861
H 7.40121110 8.48479989 7.80912233
H 6.04638120 12.40648449 7.03052734
H 6.48348239 13.67380430 7.79914960
H 1.32400438 10.02284404 7.83607448
H 1.77723877 8.76632074 8.61433100
H 0.40396385 1.46111366 3.34070076
H 1.30053066 2.71948944 3.32845636
H 4.30243901 4.81319787 1.08733879
H 5.18541160 3.54558832 1.08605568
H 6.04537999 5.10951549 2.54761707
H 6.49021294 6.37552162 3.31381231
H 5.67652291 4.83628209 6.35788614
H 5.66798662 4.84127629 4.81079892
H 3.52393985 1.18331624 5.55284307
H 2.18099108 1.17717388 4.78688897
H 3.51690052 5.08305823 5.59988408
H 2.17352558 5.06563154 6.36571731
H 4.29569475 1.43165968 1.10686050
H 5.63437688 1.43403690 1.88025664
H 5.21571708 2.72919599 5.55924922
H 5.66443400 1.46667931 4.78587445
H 1.29117060 3.52608453 7.81570241
H 0.39872655 4.78938658 7.81473991
H 0.42644909 4.83649233 3.34248771
H 1.76266015 4.82472724 4.12083244
H 2.16755273 5.11696112 1.87875162
H 2.61211115 6.37608731 1.10224936
H 2.61027598 14.48669470 1.10793014
H 2.15373624 1.14639345 1.87661023
H 6.51440502 14.49295383 3.33405455
H 7.41159969 1.14913627 3.32916635
H 7.38950809 1.18132590 7.80201878
H 6.05127977 1.18566766 7.02907012
H 6.49512663 6.37710757 7.85365416
H 6.04350720 5.11250169 8.61859924
H 1.77798649 1.42301045 8.59243880
H 1.78510268 1.42585689 7.04588308
H 9.53938011 1.45616523 4.12230643
H 9.09790995 2.71695709 3.34561417
H 12.94877620 3.53343416 1.09820617
H 12.05830947 4.79592464 1.09599272
H 13.81252174 5.10137909 2.55079492
H 14.25782109 6.37072333 3.31186114
H 13.42693138 4.83304243 6.35055834
H 13.43230501 4.83206548 4.80295093
H 10.37365415 14.49210824 5.59365072
H 9.91712833 1.14459056 6.37280340
H 10.39359584 6.37346481 5.57822762
H 11.28796260 5.11407471 5.57372645
H 13.40781056 1.43159022 0.30298468
H 12.07051876 1.41723563 1.07831003
H 12.04723939 1.46795049 5.58337696
H 12.93967395 2.73157943 5.57761757
H 9.52509933 4.82612020 7.02838306
H 8.19063460 4.82492994 7.81101382
H 8.18256516 4.82813947 3.35343010
H 9.52442045 4.82974859 4.12113187
H 9.91979737 5.08660328 0.31887515
H 9.91417649 5.08883091 1.86607803
H 10.36989159 14.48619209 1.10535908
H 9.93108285 1.15132668 1.87394705
H 13.79737731 1.17431932 2.57141697
H 13.78893227 1.18324287 4.11757058
H 13.81594254 1.18765235 7.02883638
H 15.15641717 1.16962622 7.79965556
H 14.25045011 6.36708820 7.84441247
H 13.80696319 5.10111023 8.61104386
H 9.09439209 2.71748078 7.83593171
H 9.53103112 1.45622162 8.61563299
H 1.77208389 1.42851996 13.07404994
H 1.77770740 1.43348569 11.52847944
H 5.17282167 3.54383767 10.06932027
H 4.27916882 4.80356508 10.06540304
H 7.40460757 5.09587268 12.28387228
H 6.05899328 5.09184283 11.51879541
H 5.67192755 4.84003723 15.31955556
H 5.67026546 4.83748916 13.77318978
H 2.62510711 14.49805442 14.54720653
H 3.51013712 1.16362887 14.55077633
H 2.17901923 5.09288057 15.33555771
H 3.51745059 5.10112099 14.56129240
H 5.65304453 1.43446729 10.84073589
H 5.65894634 1.43716499 9.29269784
H 5.19583255 2.73082584 14.56570845
H 5.64637723 1.47605622 15.34592334
H 1.33763638 3.54226307 16.80616544
H 1.78597770 4.80440077 17.57957943
H 1.77476723 4.80506542 13.09455938
H 1.32352147 3.54388987 12.32360072
H 2.13586814 5.08747380 10.82941433
H 2.13390032 5.08201850 9.28288298
H 3.51700057 1.15319009 10.06168156
H 2.62572281 14.49282136 10.06283141
H 6.47483823 14.50030072 12.32832293
H 6.01769610 1.15613318 13.10405262
H 7.39846014 1.19115866 16.80961147
H 6.05715959 1.19473147 17.58157374
H 7.40818672 5.08472305 16.80408139
H 6.06733489 5.08636263 17.57578592
H 1.78024554 1.42575529 17.56217962
H 1.78251281 1.43330760 16.01592514
H 9.51317245 8.72970109 11.52423421
H 8.17851062 8.73846844 12.30499388
H 13.43956761 12.13106546 9.29704462
H 13.44481521 12.13483364 10.84480339
H 14.25087942 13.68166869 12.33549185
H 13.80998928 12.41416247 13.10342691
H 12.95797906 10.84174600 14.55496609
H 12.06067433 12.10015336 14.55627780
H 9.91571599 8.48739207 15.33671420
H 9.91118733 8.48616582 13.78905974
H 10.37691840 13.67171805 14.56222563
H 9.92533853 12.41549724 15.34197999
H 12.93841747 10.03029578 10.07275749
H 12.04161957 8.77003715 10.06875039
H 12.06886030 8.73488310 14.54065614
H 13.40567672 8.73288795 13.76189910
H 8.17676925 12.11391610 16.79299083
H 9.06603698 10.84841658 16.79599844
H 9.54984275 12.10009400 13.09609689
H 9.10337166 10.83690637 12.32359496
H 9.95308258 12.37615920 10.85936437
H 11.29082517 12.39338357 10.08508442
H 10.36428698 7.19083805 10.05006365
H 9.91090151 8.45010316 9.27676834
H 15.15905538 8.48505492 12.28252889
H 13.81684196 8.48207167 11.51616081
H 13.80679085 8.44427301 16.00426120
H 14.25829475 7.19042674 16.78953304
H 14.26282429 13.67732184 16.77139518
H 13.81571274 12.41037615 16.00748850
H 8.18374589 8.73278262 16.82460562
H 9.52496456 8.73923611 17.59630662
H 1.77130285 8.77002632 11.50607252
H 1.31939537 10.02877548 12.28343928
H 5.65548485 12.10673442 9.27306671
H 5.21716070 10.84320643 10.04898683
H 6.06898958 12.39069448 11.51084221
H 7.40896430 12.38991651 12.28258249
H 5.67879547 12.13327362 13.77355972
H 5.67803388 12.14645686 15.32092103
H 2.14297389 8.46188365 13.75120550
H 2.59385762 7.20437747 14.52896748
H 2.18823024 12.38414856 15.34416249
H 3.52482835 12.39256722 14.56640717
H 5.67491033 8.73418377 9.30345916
H 5.66928025 8.73787962 10.85137894
H 4.27453104 8.78062224 14.55641070
H 5.18143422 10.03311344 14.56038202
H 1.30322666 10.83847033 16.79665823
H 0.42067147 12.10735564 16.79294414
H 1.75869022 12.13369092 13.10205435
H 0.41914858 12.14078859 12.33025607
H 2.17739340 12.38783102 10.85822910
H 3.51227738 12.37906174 10.07687772
H 3.53430538 8.44817138 10.06632015
H 2.62795993 7.19570148 10.05792184
H 6.03168229 8.46138221 13.11116565
H 6.48333720 7.19911894 12.33927276
H 6.03590095 8.45528416 16.00949187
H 6.49083227 7.19018383 16.77474095
H 6.49312655 13.68956237 16.80800253
H 6.05100958 12.42502724 17.57914524
H 0.41179995 8.72958961 16.77908007
H 1.74719551 8.73870344 16.00200532
