384

O 9.09005530 1.73633115 12.33351047
O 12.98764987 4.52070889 10.06398929
O 14.26875871 5.42325273 12.30633499
O 12.96092459 4.53129833 14.54577101
O 10.40813149 0.85015591 14.58049724
O 10.35433919 5.41114880 14.54948136
O 12.94640951 1.77413570 10.05339009
O 13.00117842 1.78113688 14.55258800
O 9.06957129 4.49152633 16.80786832
O 9.08917993 4.47134037 12.30530106
O 10.39335003 5.43040530 10.08530025
O 10.35612976 0.84605792 10.06957801
O 14.26513503 0.87446972 12.28810977
O 14.26723781 0.85516450 16.79732888
O 14.27765278 5.41618790 16.77798518
O 9.08929048 1.75120716 16.80585154
O 9.09362096 9.04733780 3.35763449
O 12.98615860 11.81719651 1.10356235
O 14.27709667 12.70926662 3.35218080
O 12.96530922 11.79176843 5.57575019
O 10.38705929 8.13124388 5.60148891
O 10.37559816 12.71720764 5.55116646
O 12.97392450 9.07465829 1.09086267
O 12.96448459 9.04925642 5.58418900
O 9.09133977 11.80406982 7.80467643
O 9.07763364 11.79027018 3.31719779
O 10.39053200 12.70148985 1.10046929
O 10.38463539 8.16922688 1.09061143
O 14.26181463 8.16639533 3.32246780
O 14.27354909 8.14358414 7.83450024
O 14.27156588 12.70958277 7.81208090
O 9.08782917 9.05883999 7.83274736
O 1.31840302 9.04707125 3.30765745
O 5.19979633 11.80993414 1.08578214
O 6.48991800 12.70863262 3.33200535
O 5.22482738 11.79297809 5.58167787
O 2.58559796 8.15291109 5.56443243
O 2.64167738 12.69973256 5.56209009
O 5.24157272 9.06237597 1.10716431
O 5.17259679 9.06516191 5.58756063
O 1.33323594 11.82414329 7.80357935
O 1.33141447 11.78914568 3.33120858
O 2.60667754 12.73146804 1.09169529
O 2.64541661 8.14060445 1.08572037
O 6.50053784 8.15481507 3.37235208
O 6.49039019 8.18127598 7.82156048
O 6.49433645 12.72472166 7.82797841
O 1.32051479 9.07693272 7.82010583
O 1.30627109 1.75043837 3.37762710
O 5.21114591 4.50785558 1.11473868
O 6.50135345 5.42322870 3.35802317
O 5.21272305 4.49744882 5.58715967
O 2.61333045 0.83328672 5.60899548
O 2.61289654 5.40125760 5.58069575
O 5.21488102 1.77115013 1.08143156
O 5.19594479 1.75475927 5.56628210
O 1.32219868 4.48099918 7.81730515
O 1.33018801 4.49433289 3.33859592
O 2.61742881 5.40300974 1.09707823
O 2.61768886 0.87303036 1.12753614
O 6.48359302 0.85296131 3.32347344
O 6.48901698 0.86132945 7.80811146
O 6.51292499 5.43622123 7.82968526
O 1.30945197 1.74643328 7.82931887
O 9.07730424 1.74260841 3.30865895
O 12.99288477 4.50173122 1.08294194
O 14.28483404 5.43070502 3.30841405
O 12.97714324 4.52328887 5.55253822
O 10.37546302 0.85498277 5.56014533
O 10.36566390 5.38990865 5.57331761
O 12.97056858 1.75589383 1.09571674
O 12.95065028 1.78451054 5.59837825
O 9.08887800 4.50777453 7.83946109
O 9.07613496 4.48460820 3.31622855
O 10.40382359 5.41131063 1.08984730
O 10.39173267 0.83140902 1.09376922
O 14.23945482 0.84976255 3.36287449
O 14.25548967 0.85543847 7.82706665
O 14.27643084 5.39929480 7.81073066
O 9.08792758 1.76333444 7.80728876
O 1.32774410 1.76154717 12.30022003
O 5.22507366 4.51515021 10.07393489
O 6.51211072 5.39289155 12.32341045
O 5.18698767 4.52252086 14.56466096
O 2.59209072 0.85038294 14.55548084
O 2.59643361 5.42830403 14.53660744
O 5.20153513 1.76832973 10.06014346
O 5.17669445 1.78649572 14.52302303
O 1.32487671 4.49703479 16.79062622
O 1.32253593 4.50299288 12.27981017
O 2.63220454 5.40951698 10.04264166
O 2.61315653 0.84483219 10.05814923
O 6.49215689 0.85982546 12.31780805
O 6.48722457 0.87329909 16.76258146
O 6.48894073 5.41317485 16.80813363
O 1.32475869 1.75473816 16.81916901
O 9.07694917 9.05873495 12.31537943
O 12.96823269 11.81251660 10.05187923
O 14.24633310 12.73050166 12.30308906
O 12.97582926 11.80711961 14.56143936
O 10.38268819 8.15087275 14.54705647
O 10.38188220 12.71331020 14.58334886
O 12.98353166 9.07533720 10.05550695
O 12.97779841 9.05880190 14.56828096
O 9.06851124 11.80086698 16.81567889
O 9.09941967 11.80741434 12.32422408
O 10.38019603 12.70274979 10.06745177
O 10.39424990 8.17503286 10.07768176
O 14.24554822 8.16005463 12.31310992
O 14.28204611 8.15647307 16.80240253
O 14.26846742 12.71844633 16.80262619
O 9.06739102 9.06205859 16.78892185
O 1.28467510 9.09256640 12.28723588
O 5.21174338 11.80131205 10.08058747
O 6.51320134 12.71837786 12.32197261
O 5.20795057 11.78596496 14.54827063
O 2.58382201 8.16725978 14.51349325
O 2.61632010 12.70740255 14.56021409
O 5.18856841 9.05890225 10.07134010
O 5.18846173 9.03786426 14.52261808
O 1.32449705 11.80455714 16.80468243
O 1.30932605 11.83676958 12.30431034
O 2.62595849 12.70761651 10.05765874
O 2.59567381 8.15195055 10.07451840
O 6.49722023 8.13111568 12.28854233
O 6.48730467 8.15374213 16.77090706
O 6.47385763 12.72655042 16.79357424
O 1.33341224 9.06472970 16.79494517
H 8.18116415 1.41877937 12.35968847
H 9.52821058 1.41320776 13.12746191
H 12.98003071 3.55809302 10.04197926
H 13.43984097 4.81015538 9.26424246
H 13.83934396 5.09346256 11.50925609
H 15.17292964 5.09211003 12.28752443
H 12.05166788 4.84646902 14.52317229
H 13.39412526 4.85978687 13.75074342
H 10.43140317 14.48936182 14.58280539
H 11.32167487 1.15348206 14.56630693
H 9.88984588 5.07200326 13.77679491
H 9.88984653 5.07891937 15.32437675
H 13.38269373 1.43669875 9.26364910
H 12.04173462 1.44516924 10.03581242
H 13.44626966 1.48970522 13.74990814
H 12.99557043 2.74369699 14.53305900
H 9.54362705 4.79769128 17.58793839
H 9.08980538 3.52884780 16.83206399
H 9.10918667 3.50859274 12.28196532
H 9.55003123 4.78416956 11.51965465
H 11.31056298 5.13760992 10.07486879
H 10.41191878 6.39333532 10.08789530
H 9.90756900 1.13572278 10.87092270
H 10.35433717 14.48528207 10.08669420
H 14.24095103 14.51402772 12.27482145
H 13.79799842 1.17203930 11.50018309
H 15.17437860 1.17850058 16.78755097
H 13.84389865 1.19107741 15.99973223
H 14.26760871 6.37916665 16.76706059
H 13.80707157 5.12541151 15.98949536
H 9.54949302 1.41325511 17.58160112
H 9.57448346 1.42869727 16.03873818
H 9.53449291 8.71896832 4.14824869
H 8.18898112 8.71858998 3.38964785
H 12.07947228 12.14098093 1.12648361
H 13.41884228 12.14064328 1.90113593
H 14.25883896 13.67180208 3.37804596
H 13.81397072 12.40330580 4.13946125
H 12.05163047 12.09580554 5.57139534
H 12.93792560 10.82895208 5.57962654
H 10.36577408 7.16840852 5.61321896
H 9.92506656 8.43093034 6.39179278
H 9.91801721 12.42010159 4.75768077
H 10.36961664 13.68024803 5.53334283
H 12.05682062 8.78061881 1.08477321
H 12.95572374 10.03772329 1.09199634
H 12.06376746 8.70841044 5.61241180
H 13.40739710 8.72296170 6.37407109
H 8.18923617 12.14007213 7.79564382
H 9.51815813 12.13399890 7.00717849
H 9.06056367 10.82752417 3.33859002
H 8.16145851 12.08672197 3.32001411
H 9.91953195 12.37583883 0.32599382
H 9.91393899 12.36940715 1.86946314
H 9.90420858 8.49119529 0.32095645
H 9.91511605 8.48773316 1.86839158
H 13.78329089 8.49865785 2.55485559
H 13.79721886 8.48618553 4.10289545
H 14.30471948 7.18108420 7.82674670
H 15.18560670 8.45268864 7.82311710
H 13.83364797 12.37809722 7.02134391
H 15.17878074 12.38700201 7.78622059
H 9.06920822 10.02163306 7.81777442
H 8.16952942 8.76789210 7.82946085
H 1.75844343 8.71670806 2.51742779
H 0.41102548 8.72448733 3.28349170
H 5.62979027 12.14910296 0.29281796
H 4.29387014 12.13511735 1.06794651
H 6.03046831 12.41233850 2.53891633
H 6.47778470 13.67145659 3.31181338
H 5.68605213 12.12813257 6.35822969
H 5.69423641 12.12443621 4.80853253
H 2.58438493 7.19025457 5.55533158
H 2.13253847 8.43908034 4.76404354
H 2.20325937 12.36577414 4.77222683
H 3.54642390 12.36992093 5.54334817
H 5.68541620 8.76560463 0.30592871
H 5.23737317 10.02483842 1.07967711
H 5.16199850 10.02861311 5.58671476
H 4.25574100 8.77103578 5.58072768
H 1.80906583 12.14997252 7.03217897
H 1.80260049 12.14798008 8.57966240
H 1.30425886 10.82652657 3.31770220
H 0.41724153 12.09219532 3.34082696
H 2.60289616 13.69383905 1.12732927
H 2.15724567 12.42220179 1.88535428
H 2.66250847 7.17741904 1.08801984
H 3.56101013 8.43742444 1.09720204
H 6.04632632 8.48483911 2.59004575
H 6.01616943 8.48404685 4.13731272
H 6.01540650 8.50491505 8.59430329
H 6.01159887 8.49849511 7.04844189
H 6.04331238 12.41970097 8.62201058
H 6.47713062 13.68753813 7.84840542
H 1.77122564 8.77593305 7.02424841
H 1.33505616 10.03966009 7.79846303
H 1.73676230 1.41336346 4.17052187
H 0.39959562 1.42694669 3.39143852
H 4.30299841 4.82792271 1.12854608
H 5.63962421 4.84219359 1.90980403
H 7.41451815 5.11763875 3.33646359
H 6.52715194 6.38634321 3.36321131
H 5.67862728 4.83503586 4.81429312
H 5.68245039 4.83082944 6.35840761
H 3.52550380 1.14186540 5.58889000
H 2.64642959 14.47277573 5.58926543
H 2.17919978 5.06635978 6.37303301
H 3.51993729 5.07924032 5.60348485
H 5.65744567 1.47580695 0.27887201
H 5.22862191 2.73424063 1.06852612
H 5.20821576 2.71771058 5.55184236
H 5.64982436 1.45998660 4.76920725
H 1.78458093 4.78620299 8.60523854
H 1.33086907 3.51789407 7.84421536
H 1.78711396 4.79353042 4.13210219
H 1.32667493 3.53179816 3.37108477
H 2.15060494 5.07776899 0.32014020
H 2.14623798 5.06904143 1.86797386
H 3.52325714 1.19959245 1.14112002
H 2.18630192 1.19736995 1.92482783
H 6.05562739 1.18356293 2.52604818
H 7.39207573 1.17190096 3.30066498
H 7.39397208 1.18953757 7.78855482
H 6.05703472 1.18610634 7.01065419
H 6.48971573 6.39892401 7.84322345
H 6.05305545 5.13624511 8.62085353
H 1.78471216 1.41606877 7.05899062
H 1.77644196 1.41444098 8.60401717
H 9.54630356 1.42524604 4.08751562
H 9.55366965 1.40441417 2.54236131
H 13.45811634 4.83037348 0.30648341
H 13.46861308 4.83447419 1.85175566
H 15.19868404 5.12785117 3.32630739
H 14.30653277 6.39368618 3.31196318
H 13.40777054 4.85310591 4.75700770
H 12.06933879 4.84341154 5.53678188
H 9.93517589 1.18028057 6.35255769
H 11.27655337 1.19413589 5.59079700
H 9.90508741 5.05856974 6.35151381
H 9.89315375 5.05757103 4.80322841
H 12.98541927 2.71864383 1.07447300
H 13.43224821 1.45801547 0.30453844
H 12.97425464 2.74728634 5.60691811
H 13.41527683 1.48402757 6.38654157
H 8.18649470 4.84479542 7.86293749
H 9.53060033 4.84451069 8.62571851
H 9.54836489 4.78844342 2.53426989
H 9.08353330 3.52180431 3.28825585
H 10.41824756 6.37369373 1.08799522
H 11.32171489 5.11965215 1.08744502
H 11.30558773 1.13609150 1.09156908
H 10.41660122 14.47029531 1.09588962
H 13.76538331 1.19073826 4.12871568
H 13.78124620 1.17631747 2.58150271
H 14.27821817 14.49495482 7.81798162
H 15.17273587 1.15060439 7.82811503
H 13.84170961 5.08913547 7.00973517
H 15.17804926 5.06067390 7.79038596
H 9.52932251 1.45500177 8.60558766
H 9.10016829 2.72563957 7.84038129
H 1.74954140 1.43256124 13.10112884
H 0.41973927 1.44055419 12.31239143
H 5.67937624 4.79822619 10.87479124
H 5.22598022 3.55224587 10.08193640
H 6.07343318 5.07835896 13.12058235
H 7.41230623 5.05068003 12.34095105
H 5.61678579 4.84208367 15.36498121
H 4.28707950 4.86584114 14.57107518
H 2.59671932 14.48962601 14.57435114
H 2.14653763 1.14101710 15.35822397
H 2.15006288 5.11864520 13.74148421
H 2.57390951 6.39080451 14.50793004
H 5.63534320 1.44491782 9.26381705
H 4.29843828 1.43469948 10.04012608
H 4.26447500 1.47855695 14.53991896
H 5.14717960 2.74929124 14.53681123
H 1.75741096 4.82939312 15.99724983
H 0.41955723 4.82563915 16.76565366
H 1.78674722 4.79722001 11.48909291
H 1.33698587 3.54005975 12.26917228
H 2.63699723 6.37249016 10.05137235
H 3.55234758 5.12511839 10.05212604
H 2.60633819 14.48386548 10.08070431
H 2.16039692 1.14292585 10.85433930
H 6.00903302 1.20162009 13.07826634
H 6.03657966 1.18349084 11.53389440
H 7.39605509 1.19097263 16.74708355
H 6.05502085 1.21135533 15.97149301
H 6.06028552 5.09025006 17.60774953
H 7.39218413 5.07860230 16.82464584
H 1.78051147 1.46526504 17.61656226
H 1.33948423 2.71771706 16.82666772
H 9.55463374 8.73774086 11.54290278
H 9.55078832 8.73234212 13.08777157
H 12.98863193 10.84958044 10.03096965
H 13.43338998 12.11389935 9.26410415
H 13.78478380 12.39208048 11.52842997
H 13.77928300 12.39728799 13.07618710
H 12.06964336 12.13055727 14.59538580
H 13.41700249 12.13991974 15.35041743
H 10.39932698 7.18796110 14.54821417
H 11.29849513 8.44738464 14.55947611
H 9.90155739 12.38412558 15.35037181
H 9.91917182 12.38788373 13.80402104
H 13.43986032 8.74583800 10.83692770
H 13.45608737 8.72902372 9.29045546
H 13.44156828 8.76714451 15.36058992
H 12.98552458 10.02163690 14.58345266
H 8.15551789 12.10571276 16.81127580
H 9.04126002 10.83798104 16.80766920
H 9.55658764 12.09731210 11.52771650
H 9.09783921 10.84460681 12.30458463
H 9.94743262 12.37861621 9.27100537
H 11.28760896 12.38020782 10.04058415
H 9.95087898 8.49775529 9.28598205
H 11.29723621 8.50904421 10.04739142
H 14.24678063 7.19683566 12.33042676
H 13.79262564 8.45310030 13.11105257
H 15.18774508 8.48342803 16.82512303
H 13.84494827 8.48666104 17.59438041
H 13.81437422 12.42263834 17.59899709
H 14.25592985 13.68152336 16.81765833
H 9.51312384 8.73715254 15.99980512
H 8.16553331 8.72473683 16.75615274
H 1.26609474 10.05532187 12.29092340
H 0.36901987 8.79311727 12.29678233
H 5.67194398 12.09883581 10.87226935
H 5.21963267 10.83840840 10.09844607
H 6.52300666 13.68137949 12.32333399
H 7.43191691 12.42934525 12.32150739
H 5.21633860 10.82350942 14.51986373
H 5.66670601 12.09102786 13.75811040
H 2.13039679 8.49561056 15.29668874
H 2.10744828 8.51076156 13.74982765
H 2.18592764 12.37255841 15.35412035
H 3.51915888 12.37312743 14.57043066
H 4.28203359 8.73531848 10.09718336
H 5.63216505 8.71164656 10.85284657
H 4.27837644 8.72492208 14.49231092
H 5.62669136 8.70311173 13.73304828
H 1.75289028 12.15070341 17.59518429
H 0.41866945 12.13139323 16.81767905
H 1.74492604 12.15435237 13.10215552
H 0.40739592 12.17353564 12.32314756
H 2.18208937 12.38304378 10.84816968
H 3.52992734 12.37665035 10.09051303
H 2.14028191 8.48666766 9.29502978
H 2.11708079 8.48899719 10.83955804
H 7.40920299 8.44131059 12.30021539
H 6.53294190 7.16847545 12.29851939
H 6.47683019 7.19062311 16.76612808
H 6.02020806 8.44024809 15.97885150
H 6.03022200 12.41660240 15.99679215
H 6.46784855 13.68884512 16.75961120
H 1.80484463 8.75873565 17.57649274
H 1.34379717 10.02754582 16.82365827
