384

O 9.07808613 1.76714289 12.31785863
O 12.96648180 4.50745229 10.06047251
O 14.25868450 5.40986157 12.29598228
O 12.97957268 4.49949347 14.55886647
O 10.37003590 0.85712701 14.55805785
O 10.38645491 5.41271790 14.55702668
O 12.95020216 1.76564007 10.06714361
O 12.95532649 1.76178824 14.55431290
O 9.08069480 4.49915595 16.79663539
O 9.10615942 4.50685385 12.30359631
O 10.38099200 5.42245393 10.05608474
O 10.36329969 0.86165250 10.07084379
O 14.24453055 0.85576627 12.30942540
O 14.24355230 0.85171108 16.80142300
O 14.26667439 5.41096372 16.79601689
O 9.07678097 1.75852007 16.80359905
O 9.07827629 9.06043119 3.34946568
O 12.97055546 11.80340359 1.09323858
O 14.26943107 12.70769749 3.33237998
O 12.98820991 11.79956036 5.58236744
O 10.38795980 8.14759083 5.58310551
O 10.40143417 12.71160778 5.57462165
O 12.95974803 9.06278369 1.10456671
O 12.97711394 9.05608647 5.58093014
O 9.09567440 11.81269790 7.81377214
O 9.09324058 11.80087130 3.33824834
O 10.38510319 12.69740148 1.09072823
O 10.37039063 8.15086768 1.10407014
O 14.27028943 8.14876632 3.33612645
O 14.27019504 8.16081205 7.82779665
O 14.28123715 12.71096484 7.82320968
O 9.09520447 9.06876821 7.82388040
O 1.32767833 9.06570842 3.32966307
O 5.20404213 11.80129436 1.09647338
O 6.50759131 12.71322978 3.33696755
O 5.21460844 11.80664291 5.58044130
O 2.62126892 8.15887912 5.58230104
O 2.63187080 12.71463195 5.57125522
O 5.19461975 9.06219521 1.08765506
O 5.21226273 9.06419828 5.58231706
O 1.34028740 11.80803964 7.81551359
O 1.32728842 11.80559122 3.32796892
O 2.61951879 12.71293717 1.08253075
O 2.60842850 8.15101401 1.08663997
O 6.48339557 8.15424080 3.33538354
O 6.50168129 8.15972194 7.82478837
O 6.50677971 12.71695407 7.82765162
O 1.32583226 9.06989899 7.83195582
O 1.32514333 1.76125516 3.33680708
O 5.20366830 4.50039975 1.09734847
O 6.51100187 5.41080779 3.32930695
O 5.21372519 4.51487930 5.57499600
O 2.61364201 0.85288847 5.58467040
O 2.62208961 5.41775182 5.58074159
O 5.19351014 1.76113320 1.08828618
O 5.20146660 1.77214677 5.57723305
O 1.33158109 4.50835482 7.82026266
O 1.33192347 4.50511468 3.33649774
O 2.62102737 5.41106437 1.08685512
O 2.60473436 0.85460122 1.08215092
O 6.48829613 0.85281586 3.33352637
O 6.49419223 0.85633763 7.82379902
O 6.50210417 5.41972607 7.82085023
O 1.31653520 1.76276124 7.82862475
O 9.07814990 1.75515648 3.34273065
O 12.97580871 4.50620737 1.09560832
O 14.27254998 5.40102843 3.33448374
O 12.98956664 4.50149889 5.58405963
O 10.38110970 0.85177737 5.58101127
O 10.39925586 5.40761463 5.57622786
O 12.96489762 1.76309883 1.10852016
O 12.97147787 1.76236736 5.58582235
O 9.08980781 4.50872160 7.81288858
O 9.10071912 4.49379978 3.34042448
O 10.39035517 5.40570766 1.09039759
O 10.37790721 0.84030187 1.10000121
O 14.26819368 0.85058066 3.34659993
O 14.25635251 0.84954500 7.82691442
O 14.27914431 5.41464059 7.82546027
O 9.08184527 1.76643339 7.81916570
O 1.30044951 1.76417589 12.30308330
O 5.22408965 4.49855845 10.06866919
O 6.51161662 5.41483283 12.31386137
O 5.19259974 4.51067368 14.54922243
O 2.59181452 0.85291693 14.55007435
O 2.60659193 5.40903506 14.54070973
O 5.19875385 1.76016553 10.06956475
O 5.17965450 1.76410938 14.55679245
O 1.32216715 4.50336679 16.78871037
O 1.31341479 4.50853881 12.30140630
O 2.63331709 5.41222018 10.06387810
O 2.61317264 0.85627785 10.06772993
O 6.48612612 0.86085839 12.31452010
O 6.48971712 0.85113267 16.79037757
O 6.48748514 5.41785652 16.79142373
O 1.29017747 1.76378973 16.79314349
O 9.08791821 9.06530973 12.31878026
O 12.97104156 11.80974568 10.05355045
O 14.25992075 12.72108287 12.30077028
O 12.97215703 11.80099889 14.54472658
O 10.38125164 8.15532159 14.56084429
O 10.38219834 12.71532962 14.55749101
O 12.96120501 9.07266578 10.06267640
O 12.97503297 9.06159823 14.55500616
O 9.08412098 11.79807986 16.80021870
O 9.10025966 11.81089953 12.30768730
O 10.38818856 12.72310327 10.05871508
O 10.37787336 8.16157563 10.06861940
O 14.25890476 8.15502766 12.30208856
O 14.24971438 8.14906942 16.80275700
O 14.26613465 12.70891033 16.79824475
O 9.07172635 9.05772219 16.80100037
O 1.31239871 9.06135724 12.29549660
O 5.21894812 11.80408956 10.07062693
O 6.51497388 12.72170179 12.31365488
O 5.20042175 11.80550323 14.54608765
O 2.59734921 8.15335831 14.54035920
O 2.60698655 12.71060819 14.53410529
O 5.21742786 9.06004842 10.06805881
O 5.18708210 9.06354676 14.55512559
O 1.32890058 11.80015808 16.77643250
O 1.31844074 11.80784615 12.28790572
O 2.62957227 12.71449545 10.06028986
O 2.62596709 8.15509000 10.06247711
O 6.49435825 8.16249858 12.31557398
O 6.48507385 8.15772093 16.79480463
O 6.49765632 12.70838778 16.79153509
O 1.30550600 9.05741853 16.79052283
H 8.17007638 1.44718875 12.29682290
H 9.51091724 1.43450356 11.52418107
H 13.43702677 4.83447098 9.28642774
H 13.43803317 4.84032356 10.83199210
H 15.17597990 5.11565841 12.29880664
H 14.27810159 6.37294623 12.30213035
H 13.42755405 4.79966960 13.76119238
H 12.97947667 3.53637325 14.53272409
H 10.36272840 14.49627089 14.53593081
H 9.90964985 1.15571764 13.76615435
H 9.94785722 5.08262842 15.34816608
H 11.29185344 5.08575043 14.58046971
H 12.96499062 2.72879727 10.08013005
H 13.40918595 1.47070894 10.86071015
H 13.38901395 1.42586109 13.76265329
H 12.04830070 1.43789380 14.53300111
H 9.05759815 3.53623460 16.79847867
H 8.16604390 4.79961180 16.79508655
H 9.10606443 3.54381404 12.32677411
H 9.55942300 4.80253459 13.10015601
H 9.94973923 5.08550701 10.84876238
H 11.28697026 5.09550425 10.07459532
H 11.27721866 1.16628879 10.07316775
H 10.39390078 14.50099510 10.06320973
H 14.26724109 14.49481648 12.30299278
H 15.15984565 1.15489247 12.31016753
H 13.80597260 1.17559259 16.00682608
H 15.14550521 1.18961247 16.77744573
H 15.17358647 5.08723361 16.77883048
H 13.83725743 5.07620012 16.00124120
H 9.54459980 1.43060931 16.02814136
H 9.54944609 1.43075513 17.57580505
H 9.06263927 10.02356707 3.34824080
H 8.16160737 8.76592172 3.34551090
H 13.44489857 12.12933396 0.32085073
H 13.43937075 12.13170975 1.86794999
H 14.25686477 13.67034838 3.35625988
H 13.81036449 12.40529433 4.12330676
H 12.96058371 10.83691622 5.57649208
H 12.07390092 12.10296412 5.58344671
H 9.92421168 8.47553563 6.36110352
H 9.91040664 8.47879299 4.81511228
H 10.38581284 13.67447855 5.59478030
H 9.93561298 12.41202397 6.36265242
H 12.04267516 8.76901348 1.10847386
H 12.94259802 10.02587232 1.09860678
H 13.41482709 8.72778440 4.78831780
H 12.07291308 8.72555237 5.55839461
H 9.07302487 10.84972643 7.81965768
H 8.17941550 12.10972509 7.82015698
H 9.56651322 12.12028717 2.56252036
H 9.56682821 12.13042390 4.10949519
H 10.40406095 13.66037159 1.09698443
H 11.30247229 12.40255104 1.09134490
H 9.90173383 8.48095932 0.33017110
H 9.89574516 8.47534287 1.87676251
H 15.17554188 8.47633845 3.31324714
H 13.83105079 8.48542347 2.54786367
H 13.79263654 8.48486994 8.59870955
H 13.80150556 8.48600920 7.05182699
H 15.18948893 12.39175908 7.79983664
H 13.84668139 12.37906435 7.03021795
H 9.52538753 8.74128376 8.62123131
H 8.19125027 8.73712584 7.84131077
H 1.79355019 8.73853559 4.10627080
H 1.79989560 8.73235521 2.55908148
H 4.30120918 12.13676342 1.11498215
H 5.64144326 12.13256619 1.88776320
H 7.42545206 12.42159703 3.33548596
H 6.52208741 13.67627266 3.33696718
H 5.67686028 12.10767256 4.79072018
H 5.22644096 10.84371291 5.55926279
H 2.16104523 8.46072144 6.37234362
H 2.60767856 7.19595631 5.60470636
H 3.53479979 12.37963690 5.54640565
H 2.19067302 12.38557121 4.78095376
H 5.65451185 8.77385451 0.29190361
H 5.20354048 10.02545606 1.07921833
H 5.63786182 8.73057531 4.78505946
H 4.30545354 8.73962747 5.56837797
H 1.81192523 12.13517245 7.04227217
H 1.80630231 12.14056678 8.59003119
H 0.41096694 12.10171967 3.33268706
H 1.30800007 10.84263051 3.32544553
H 2.60075002 13.67583946 1.09688397
H 2.15528103 12.41525147 1.87225737
H 3.52237360 8.45521250 1.07921126
H 2.63658302 7.18806726 1.08792976
H 6.48579446 7.19136728 3.31490813
H 6.02973517 8.44928896 2.53879596
H 6.04848743 8.45628741 7.02813673
H 6.49378161 7.19677690 7.80623121
H 6.03602179 12.38603224 8.60014101
H 6.03974148 12.38702957 7.05274604
H 1.31396375 10.03320721 7.82497716
H 0.40751879 8.77990936 7.83035829
H 1.76358976 1.43159018 4.12849643
H 0.42074567 1.43148103 3.36189639
H 5.21352530 3.53713277 1.10586288
H 5.67088395 4.79079873 1.88780878
H 7.41690222 5.08526777 3.35312254
H 6.07606566 5.08794200 4.12564918
H 4.30858985 4.84388072 5.59217613
H 5.64546546 4.84606773 6.36957268
H 2.64754752 14.49241335 5.57600152
H 3.52585025 1.16186537 5.58496784
H 2.15280186 5.08034369 6.35147566
H 2.15304046 5.08955130 4.80600947
H 4.28729805 1.43633762 1.06100397
H 5.63329429 1.42814879 0.29888784
H 5.21230680 2.73507653 5.59984922
H 5.66001874 1.47112178 6.36875238
H 1.30504090 3.54568991 7.82397710
H 0.41679618 4.81054490 7.82046483
H 0.41642895 4.80456659 3.33239942
H 1.30734013 3.54235776 3.34005677
H 2.18119723 5.08281791 1.87837124
H 3.52407741 5.07686397 1.11353994
H 2.12870754 1.18777908 0.31423151
H 2.14344971 1.18350533 1.86090463
H 6.02145499 1.18634135 4.10701939
H 6.01417979 1.17324225 2.55906778
H 6.51910691 14.49566313 7.82202344
H 7.40895114 1.15754522 7.82591004
H 7.40804985 5.09321786 7.83366818
H 6.07202361 5.08258073 8.61385829
H 1.75425771 1.43142053 7.03726430
H 0.41342170 1.42983167 7.80833582
H 9.06363432 2.71825064 3.33884429
H 8.16036611 1.46317718 3.33578703
H 12.07047603 4.83468617 1.06989366
H 13.41221985 4.83022529 0.30040787
H 13.81270369 5.10808548 2.54022135
H 14.26418166 6.36393983 3.31811295
H 13.44537391 4.79232346 4.78709651
H 12.99436703 3.53841039 5.57209066
H 9.91292808 1.18499359 6.35384873
H 9.90587669 1.17582168 4.80829767
H 11.31543565 5.11051672 5.57874819
H 10.41656987 6.37058425 5.57875694
H 12.97781116 2.72584999 1.08182351
H 13.41420974 1.45988703 0.31205859
H 13.40271807 1.42862196 6.37991056
H 12.06520671 1.43690239 5.60315665
H 9.56321122 4.83481328 7.03994309
H 9.55732362 4.84288665 8.58579302
H 9.57722347 4.82384343 4.10968840
H 9.56506342 4.82191588 2.56325306
H 10.36761142 6.36836010 1.07469631
H 9.92169845 5.10360953 0.30505606
H 11.27934794 1.17817808 1.12419485
H 9.93701684 1.16710810 1.89135146
H 13.79668103 1.17965090 4.11915595
H 13.80056880 1.18183875 2.57247402
H 14.25249657 14.48870307 7.84750182
H 13.80054513 1.14851451 8.62068204
H 14.26305719 6.37732252 7.80751307
H 13.82407585 5.11411538 7.03143561
H 9.54100767 1.46901617 8.61191717
H 9.09641746 2.72938820 7.83533526
H 1.76040161 1.46336041 13.09398690
H 1.31444542 2.72697191 12.32325249
H 4.31116844 4.80570977 10.06259856
H 5.19087518 3.53583147 10.06693759
H 6.07616369 5.07983208 11.52268670
H 7.41709849 5.08811610 12.29171573
H 5.65810225 4.84358116 15.32390542
H 5.67259351 4.82918977 13.77744117
H 3.50743760 1.15159320 14.55743937
H 2.61557153 14.49210736 14.54460694
H 2.62495232 6.37212750 14.54253461
H 3.52392771 5.11430341 14.54214298
H 5.63621404 1.42992504 9.27765338
H 4.29318025 1.43275056 10.04642675
H 5.19391694 2.72675376 14.57702845
H 5.64678017 1.46296029 15.34340268
H 1.79436294 4.82909095 17.56242888
H 1.78972668 4.83754204 16.01583899
H 1.78847358 4.83303268 11.52904221
H 1.78401573 4.83728199 13.07512273
H 2.61942210 6.37507736 10.04272421
H 2.17132599 5.11196441 9.27396542
H 2.14401579 1.18845828 10.84036957
H 2.14020026 1.18121682 9.29409645
H 6.01583861 1.18854218 11.54045225
H 6.01562265 1.19030224 13.08744725
H 6.51291299 14.49027288 16.79178058
H 7.40607952 1.14795150 16.79719740
H 6.47672648 6.38084042 16.81115720
H 6.03258443 5.11863471 17.58551445
H 1.75329257 1.45713750 16.00632867
H 1.31519622 2.72660285 16.77166014
H 8.17032528 8.77280706 12.31541508
H 9.07168335 10.02831932 12.31461137
H 13.43994070 12.10223484 9.26458594
H 12.97940934 10.84650360 10.04021142
H 13.79370362 12.39128668 11.52538424
H 13.79274905 12.38522275 13.07295566
H 12.98380084 10.83814530 14.57289169
H 13.42833910 12.10556109 15.33608397
H 10.37311694 7.19266904 14.53991009
H 9.92153476 8.45483027 13.76936971
H 9.94944288 12.38835810 13.76145661
H 11.28622436 12.38415319 14.53746507
H 12.05720349 8.74080818 10.08660169
H 13.39945631 8.74299778 10.85439977
H 13.40277803 8.72690975 15.35059793
H 12.06898701 8.73541403 14.57048628
H 9.55004017 12.12893856 16.02511799
H 9.55888745 12.12756544 17.57110898
H 9.53455610 12.13737446 11.51247631
H 8.19830930 12.14884921 12.28940791
H 9.95240598 12.39315899 9.26579737
H 11.29303350 12.39329195 10.03483037
H 10.36957930 7.19837814 10.08596748
H 9.92058357 8.45918903 10.86222828
H 15.16265849 8.48806392 12.31728143
H 13.82953697 8.48196851 13.09964251
H 13.78911525 8.44576084 17.59464484
H 14.24460789 7.18589533 16.81881200
H 15.18246984 12.41349528 16.78937817
H 14.28342247 13.67199244 16.79377391
H 9.09233699 10.02064755 16.78281446
H 9.53605366 8.75671844 16.01265072
H 1.76787252 8.76300726 13.09027127
H 1.32697768 10.02416251 12.31292778
H 4.30313120 12.10238492 10.07231569
H 5.19770076 10.84108525 10.06995570
H 6.48917898 13.68448433 12.29487027
H 6.05357931 12.41629955 11.52524184
H 5.67108366 12.14011119 13.77541593
H 5.67113495 12.12898282 15.32149759
H 2.15990091 8.47448364 15.33594988
H 3.50027278 8.48766445 14.56417575
H 2.17761306 12.37438729 15.32832225
H 3.51281407 12.38410916 14.55082496
H 5.64976051 8.73471533 9.27082585
H 4.31179180 8.73291379 10.04669101
H 5.64292223 8.75997538 13.76270622
H 5.20440937 10.02629672 14.53164591
H 1.78168026 12.09860855 17.57222318
H 1.32776589 10.83721285 16.80174726
H 1.75252888 12.13541895 13.08296453
H 0.41262964 12.13371843 12.31041772
H 2.61355856 13.67731184 10.08213033
H 2.16138304 12.41417192 10.84688277
H 2.15640388 8.48070237 10.83786433
H 2.15324121 8.49004588 9.29281852
H 6.49335325 7.19961169 12.29623060
H 6.04364473 8.45442163 11.51550516
H 7.39075295 8.48559802 16.77288876
H 6.05071482 8.48529462 15.99984598
H 7.40155229 12.37658939 16.81525214
H 6.06071674 12.38213425 17.58523989
H 0.39973978 8.73090776 16.81523466
H 1.74302035 8.72185308 17.58023159
