384

O 9.08872312 1.75987534 12.31553579
O 12.99203836 4.49933897 10.04230302
O 14.27253877 5.40826032 12.28526773
O 12.97507136 4.50010913 14.53146882
O 10.37357387 0.84837029 14.55602254
O 10.39401445 5.41321945 14.53868205
O 12.97071567 1.75481405 10.05700758
O 12.96216782 1.75672724 14.53737351
O 9.09267221 4.50302249 16.78135208
O 9.10850122 4.49740096 12.29411176
O 10.40503115 5.40934671 10.05733118
O 10.38714283 0.83742641 10.07320896
O 14.26409445 0.85004200 12.29801056
O 14.23532106 0.85470987 16.78832060
O 14.26326264 5.40865281 16.77516980
O 9.07581791 1.76011912 16.79697352
O 9.07585610 9.06591185 3.34609624
O 12.96466600 11.80252415 1.09584554
O 14.27108840 12.70989720 3.33025053
O 12.98156997 11.80070414 5.57411174
O 10.38068582 8.14724992 5.57216027
O 10.38803881 12.71468484 5.58135831
O 12.94063649 9.06242994 1.09027005
O 12.97075628 9.05547084 5.57565270
O 9.10188934 11.80726021 7.82138114
O 9.08103222 11.80470342 3.34472065
O 10.37892863 12.71451428 1.10262732
O 10.35982440 8.15366710 1.09547997
O 14.25460624 8.15257844 3.32687903
O 14.26846132 8.14229196 7.81269629
O 14.27673633 12.69399782 7.81684155
O 9.09728530 9.06228383 7.82981274
O 1.31506273 9.05991461 3.33719654
O 5.19273549 11.81617255 1.10048896
O 6.49531793 12.72229138 3.34573894
O 5.20647350 11.81120271 5.58800052
O 2.61793930 8.15606670 5.57877679
O 2.61701524 12.71828317 5.58100377
O 5.18728058 9.07013842 1.09945482
O 5.20551847 9.07020828 5.59726320
O 1.34096959 11.80332795 7.82057688
O 1.32773487 11.80429962 3.34045860
O 2.60616615 12.72241974 1.09186107
O 2.60288966 8.16147751 1.08680820
O 6.48495851 8.16330426 3.34171008
O 6.50420764 8.15312231 7.83849608
O 6.50738394 12.71862442 7.82549309
O 1.32400330 9.06462078 7.82777360
O 1.31245456 1.76455528 3.33822393
O 5.18976417 4.50680805 1.09505493
O 6.49641214 5.41648126 3.33104125
O 5.21568787 4.51572773 5.58309691
O 2.62094977 0.85333999 5.58147078
O 2.62425290 5.41417170 5.56556651
O 5.18210006 1.76323734 1.09909871
O 5.20888607 1.77380282 5.59314452
O 1.33820018 4.49949308 7.81108601
O 1.32539200 4.50158534 3.32813208
O 2.61308092 5.41861855 1.07848279
O 2.59691976 0.86503545 1.09747551
O 6.48402248 0.86058805 3.33400959
O 6.50327871 0.85552322 7.83428898
O 6.51379497 5.41421644 7.83055508
O 1.32768810 1.75850230 7.82395325
O 9.07277719 1.76512495 3.34060384
O 12.97402444 4.50401666 1.08147262
O 14.26329539 5.40944898 3.32081434
O 12.97562756 4.48909391 5.56697698
O 10.37687593 0.85260386 5.57621774
O 10.39428821 5.40463675 5.56658476
O 12.96443604 1.76620358 1.09693585
O 12.96770328 1.74949855 5.57666986
O 9.10019925 4.50108202 7.81828733
O 9.08083972 4.50909242 3.32818958
O 10.38116303 5.41415631 1.08907772
O 10.37213816 0.85423149 1.09957814
O 14.25864402 0.84696193 3.32910026
O 14.27097287 0.83988594 7.81773981
O 14.28468557 5.39297168 7.80317690
O 9.09275436 1.75571861 7.82867410
O 1.31905987 1.76514508 12.31027118
O 5.22125618 4.50170374 10.06932880
O 6.52075041 5.41590807 12.31066346
O 5.21148511 4.51184674 14.54629291
O 2.60047074 0.86484776 14.56106834
O 2.62118668 5.41959266 14.54262108
O 5.20499599 1.76222500 10.07192677
O 5.19291867 1.77252373 14.55731612
O 1.31922619 4.51107553 16.78163416
O 1.33193252 4.50252840 12.29609775
O 2.62826656 5.41235658 10.05599252
O 2.62121975 0.84985363 10.07123311
O 6.49492344 0.85840481 12.32091624
O 6.48457324 0.85663233 16.80473084
O 6.49808738 5.41965020 16.79680787
O 1.28883242 1.76644889 16.79863819
O 9.07442626 9.06088978 12.31299364
O 12.98086241 11.79380936 10.05393795
O 14.27018723 12.70496273 12.29563014
O 12.97700986 11.80058936 14.54311301
O 10.37125703 8.15026054 14.55806840
O 10.38726660 12.71506547 14.55789780
O 12.97727329 9.05141332 10.06273028
O 12.95865241 9.06268869 14.54281890
O 9.08641851 11.80718428 16.79747230
O 9.09368569 11.80250012 12.31964192
O 10.39219978 12.69973020 10.06796240
O 10.38380585 8.15193134 10.07689060
O 14.26618493 8.14968928 12.30611498
O 14.24193298 8.15555200 16.78977795
O 14.24970493 12.71555220 16.79109679
O 9.07025114 9.06717038 16.79806002
O 1.32183582 9.06810267 12.31042733
O 5.22030932 11.80295156 10.07303790
O 6.51005875 12.71510351 12.32173715
O 5.20449180 11.80900586 14.56063636
O 2.59693795 8.15972671 14.55662130
O 2.61620028 12.72761836 14.55722528
O 5.20931862 9.06510491 10.07550633
O 5.19302519 9.06855608 14.56065469
O 1.30726919 11.81484124 16.79489105
O 1.33430049 11.81085094 12.30951694
O 2.62956563 12.71086130 10.06563447
O 2.62093986 8.15920816 10.06744521
O 6.47837561 8.16229453 12.32368660
O 6.48782193 8.15875115 16.80562431
O 6.49190805 12.71503890 16.80164788
O 1.29536973 9.06731878 16.79741706
H 9.07561583 2.72307885 12.30504887
H 8.17046949 1.46952233 12.31384235
H 13.42493025 4.83109561 10.83649526
H 12.08734613 4.82961304 10.06167887
H 14.26189059 6.37127637 12.30860137
H 13.81565470 5.10765229 13.07786888
H 12.98110495 3.53696428 14.54976674
H 13.43326137 4.79520658 15.32565247
H 9.90395015 1.17938932 13.78269593
H 9.90258087 1.17617259 15.32949006
H 9.95391846 5.07844577 15.32716006
H 11.29855677 5.08256257 14.56181721
H 13.43214569 1.45658179 10.84839912
H 12.98964822 2.71769149 10.07237748
H 12.05430974 1.43556940 14.55850943
H 13.39222270 1.42393962 15.33241318
H 9.06376261 3.54027482 16.78833961
H 8.17891421 4.80667506 16.78920018
H 9.57908870 4.82761872 11.52135993
H 9.57751428 4.82455506 13.06893719
H 9.94099409 5.10762977 9.26905176
H 10.38370504 6.37204084 10.04079185
H 11.29068308 1.17070529 10.09027282
H 9.95230615 1.16860026 10.86592715
H 13.82543377 1.17326555 13.09222157
H 15.16810031 1.18092762 12.32331741
H 15.15002866 1.15642451 16.78998168
H 14.26105154 14.49385710 16.78656934
H 15.16999113 5.08440025 16.79620902
H 13.83158099 5.08385617 17.57235137
H 8.17173375 1.42906861 16.81883304
H 9.51282268 1.43064195 17.58931883
H 9.53755711 8.73735086 2.56736083
H 9.54989600 8.72783286 4.11360187
H 13.44080098 12.13162078 1.86570364
H 13.42722290 12.13317841 0.31854100
H 14.25697584 13.67297236 3.34568437
H 13.81406251 12.41355055 4.12461806
H 12.07777637 12.13220747 5.59646572
H 13.41674480 12.12512123 6.37007758
H 11.29605689 8.44651608 5.57906117
H 10.40469420 7.18423738 5.57398006
H 10.37413204 13.67753683 5.55710603
H 9.92667937 12.41136589 4.79215170
H 12.96277631 10.02520688 1.07172878
H 13.40386372 8.75954822 0.30204870
H 13.43021830 8.75569911 6.36750956
H 12.98231709 10.01835180 5.59754826
H 9.53543336 12.14113067 7.02834142
H 8.19638450 12.13427796 7.80138201
H 8.16522857 12.10272425 3.34438100
H 9.05880659 10.84171093 3.34615214
H 9.93981246 12.38261242 1.89287758
H 11.28221084 12.38118091 1.12432218
H 9.92222666 8.48808706 0.30524398
H 11.26379929 8.48634808 1.07096386
H 13.77830140 8.48112290 2.55716905
H 13.79196011 8.48419546 4.10391356
H 15.17234012 8.47358120 7.83651053
H 13.83147104 8.46842407 8.60648195
H 14.26353627 13.65662096 7.83932159
H 13.81942225 12.39328745 8.60987886
H 9.10819486 10.02511085 7.80417133
H 9.55032552 8.75918344 7.03614724
H 0.40863657 8.73550026 3.31358681
H 1.74794770 8.73443865 2.54077102
H 5.65341884 12.11521572 0.30901223
H 5.20510595 10.85340813 1.07872694
H 6.02490961 12.39594377 2.57144378
H 6.02440365 12.39219905 4.11849053
H 5.18431779 10.84812492 5.59506758
H 4.29103706 12.11059444 5.58791120
H 2.15807563 8.45405840 4.78664380
H 2.60642768 7.19300197 5.55644096
H 2.16056182 12.41988933 4.78708430
H 2.61316238 13.68143814 5.56129348
H 5.65747086 8.74502826 1.87452206
H 5.65950516 8.74092304 0.32723107
H 4.30315320 8.73369149 5.61029368
H 5.64046702 8.73720089 6.38917611
H 0.43378800 12.12647352 7.80535547
H 1.76805168 12.13965649 7.02509546
H 0.41239001 12.10422675 3.33744112
H 1.30245026 10.84148395 3.33778586
H 3.51090216 12.39217805 1.11021676
H 2.17339493 12.39015058 1.88549903
H 3.51825724 8.46160639 1.09267253
H 2.62878219 7.19858851 1.08466778
H 7.38914398 8.49384011 3.36379122
H 6.05134493 8.48820541 4.13792076
H 7.41778786 8.45724985 7.83443667
H 6.53245009 7.19030325 7.83880919
H 6.04506204 12.38735405 8.60276342
H 6.03231725 12.38612740 7.05652975
H 1.77598524 8.75896686 7.03415732
H 1.34117506 10.02743641 7.80107491
H 1.78391487 1.44046047 4.11269213
H 1.78391653 1.43387217 2.56576113
H 5.20102281 3.54385299 1.11256481
H 5.65591113 4.80482954 1.88346989
H 7.41373904 5.12204824 3.33209849
H 6.51484604 6.37938359 3.33442001
H 4.30937093 4.84056838 5.55447917
H 5.65384316 4.84671701 4.79174776
H 2.18223974 1.17997238 6.37439733
H 3.52337957 1.18830657 5.60491047
H 2.15355933 5.07763940 4.79557805
H 2.15949780 5.08305745 6.34156233
H 5.65130305 1.43529770 0.32444871
H 5.65494363 1.43318825 1.87077364
H 5.21925381 2.73684731 5.56972210
H 5.65692859 1.47351257 4.79554434
H 0.43357009 4.83031354 7.83099592
H 1.77202101 4.83194581 8.60416147
H 1.30084767 3.53855759 3.32724437
H 0.41087332 4.80258858 3.32550272
H 2.17457300 5.08801673 1.86956535
H 3.51685187 5.08509107 1.10497274
H 3.51364559 1.16182231 1.09592747
H 2.61906280 14.50423038 1.09425036
H 7.40010394 1.15775212 3.33482265
H 6.50437610 14.49971745 3.34391092
H 6.05118139 1.16117090 7.04069610
H 6.48896365 14.49465534 7.80949199
H 6.04136442 5.09412565 7.05468693
H 6.04239258 5.08202110 8.60211042
H 0.41153789 1.46208115 7.82128862
H 1.30778695 2.72176852 7.82325766
H 9.53589381 1.46324024 2.55186564
H 9.08470342 2.72794762 3.31597787
H 13.40507869 4.83349621 1.87753765
H 12.07012480 4.83586226 1.09734927
H 14.25015574 6.37232113 3.34268012
H 13.80971430 5.10694433 4.11460448
H 13.43995430 4.78368188 6.35751073
H 12.98635778 3.52590925 5.58034091
H 9.91175626 1.17663067 6.35483644
H 9.90557578 1.19150915 4.80783059
H 9.95612854 5.07481909 6.35817686
H 11.29681766 5.06862912 5.58894336
H 13.41294796 1.46670467 0.29906004
H 12.97173876 2.72926175 1.07530665
H 12.06104390 1.42516374 5.55493515
H 13.40132200 1.42140814 4.78187977
H 9.07521940 3.53825743 7.82621248
H 8.18462287 4.80008515 7.82305886
H 9.55967906 4.82946321 4.09996146
H 9.54770912 4.83941355 2.55311439
H 10.36338922 6.37705011 1.06557222
H 9.92651482 5.10962879 0.29660445
H 10.39864732 14.49339704 1.10589030
H 11.28659636 1.15610523 1.09925825
H 13.82631107 1.18336929 2.53659734
H 15.16316466 1.17710174 3.31496198
H 13.80059982 1.17124093 8.59006721
H 13.79567294 1.15939653 7.04362432
H 14.26833395 6.35568411 7.81984116
H 13.82631607 5.09654218 8.59728704
H 8.18906674 1.42270544 7.84878716
H 9.52847393 1.42653159 8.62162009
H 1.78591744 1.43817208 13.08666858
H 1.78835473 1.43043489 11.53879083
H 5.19193910 3.53880948 10.06936976
H 4.30772303 4.80667595 10.07090097
H 6.08127051 5.07960241 11.52243469
H 7.42650031 5.09007202 12.28376747
H 5.67336557 4.84416941 15.32316786
H 5.69063847 4.83571728 13.77615437
H 2.59536716 14.50388096 14.57815507
H 2.13584757 1.15954114 15.35132737
H 3.52851392 5.09764464 14.51964944
H 2.18610173 5.08732473 13.75033027
H 5.64307988 1.43291682 9.27965231
H 4.30201118 1.42748229 10.04779447
H 4.27527065 1.48101421 14.56556658
H 5.18019998 2.73568230 14.55681869
H 1.79011576 4.84363287 17.55326690
H 1.79021076 4.83456545 16.00634407
H 1.30858886 3.53956866 12.29678805
H 0.41671698 4.80194401 12.29347610
H 2.61662675 6.37506721 10.07867363
H 2.16743318 5.11149407 10.84652196
H 2.16058772 1.15032002 9.28051969
H 2.61341246 14.48897047 10.04762145
H 6.02569511 1.18153834 11.54445522
H 6.02032181 1.18897716 13.09105392
H 6.03025726 1.16183676 16.01228383
H 6.47472536 14.49604677 16.77670167
H 6.03866303 5.11824171 17.58731476
H 6.48478796 6.38259410 16.81820373
H 1.30842991 2.72933324 16.80813937
H 1.75227607 1.47281487 17.59009530
H 8.15610274 8.77153208 12.31830388
H 9.06315678 10.02391836 12.32134905
H 13.41587370 12.12254481 10.84794391
H 12.07583254 12.12304080 10.07464390
H 15.18705225 12.41010067 12.29847928
H 14.28998818 13.66778501 12.30057637
H 13.43463077 12.09453954 13.74843307
H 12.97495661 10.83752792 14.52408503
H 9.91227348 8.44598496 13.76497101
H 10.37021228 7.18715449 14.53638695
H 11.30367491 12.41964852 14.55296493
H 10.40248900 13.67841509 14.55689923
H 12.95448822 10.01446777 10.05825322
H 12.06115271 8.75385792 10.06783311
H 13.39434885 8.73429207 15.33669883
H 12.05370568 8.73409417 14.56583889
H 9.55295542 12.13272640 17.57452500
H 9.55942456 12.14232963 16.02838660
H 9.56350336 12.12352345 11.54271015
H 9.56840746 12.13145478 13.09050987
H 10.38032916 13.66264804 10.04927621
H 9.93539251 12.40299108 9.27342299
H 9.91952366 8.48484605 9.30144370
H 9.90527729 8.47550946 10.84751532
H 13.79173203 8.47863427 13.07685958
H 13.79823458 8.47841280 11.53082814
H 14.27109720 7.19304419 16.78579695
H 15.15585348 8.45990416 16.79591868
H 15.15577870 12.38943844 16.77292050
H 13.82014609 12.38219929 15.99581600
H 9.09029458 10.03019764 16.77943978
H 9.52988954 8.76332417 16.00821832
H 0.41733198 8.73827388 12.32880802
H 1.75348202 8.73821536 13.10608533
H 5.67651031 12.10517035 10.86530799
H 5.22889231 10.84019538 10.09655387
H 7.42862411 12.42567974 12.32249554
H 6.52264006 13.67810901 12.32273952
H 5.66566468 12.10752269 13.76944301
H 5.20812035 10.84592934 14.53863678
H 2.59244390 7.19683211 14.57400128
H 2.14008765 8.45713238 15.35046684
H 2.18255582 12.39690661 13.76313004
H 3.52024264 12.39629996 14.53648755
H 4.30162582 8.74394676 10.04934870
H 5.64727169 8.73514352 9.28364739
H 5.62151480 8.73095190 13.76644885
H 4.28703400 8.74268615 14.54615411
H 1.78227974 12.14289587 16.02418915
H 1.77379001 12.14417915 17.57048706
H 1.33925312 10.84778659 12.29417382
H 1.79189029 12.10308625 11.51397092
H 3.53544204 12.38413333 10.04906181
H 2.19882512 12.38250105 9.26924905
H 2.15303656 8.48766239 10.84240478
H 2.15028617 8.49091965 9.29524958
H 6.02850963 8.45570968 11.52371663
H 6.48740793 7.19956597 12.29814922
H 7.39076281 8.49344738 16.78045287
H 6.04841987 8.48508428 16.01303812
H 6.05932961 12.38039500 16.00845019
H 7.39877001 12.39171156 16.78042918
H 1.30921790 10.03007465 16.81213498
H 1.76047377 8.77195527 17.58754189
