384

O 9.07872153 1.76887372 12.31043841
O 12.97517179 4.50565868 10.07092866
O 14.26295057 5.40634789 12.31613727
O 12.96431835 4.48750822 14.55252661
O 10.37076889 0.85473414 14.55320620
O 10.38432954 5.41096768 14.54942120
O 12.95674090 1.76590554 10.06749810
O 12.96334268 1.74683563 14.55397467
O 9.08495199 4.50958219 16.80141881
O 9.08996197 4.51252497 12.29979999
O 10.39043140 5.42320645 10.06828312
O 10.37522203 0.85325017 10.06070742
O 14.26058245 0.85377750 12.30917470
O 14.25544374 0.84502397 16.80150397
O 14.26530973 5.40626340 16.78758834
O 9.07995493 1.76491811 16.79803173
O 9.09166049 9.06671545 3.33950069
O 12.97323344 11.80057601 1.08736352
O 14.26573974 12.71869815 3.32798325
O 12.97624518 11.81597567 5.57823627
O 10.38839681 8.15377618 5.57823988
O 10.38212813 12.72387284 5.58685892
O 12.96987346 9.05988276 1.09243276
O 12.97438674 9.07201128 5.57810900
O 9.09226794 11.79518443 7.82085324
O 9.09185192 11.81332461 3.33105987
O 10.39227158 12.72147611 1.08336036
O 10.38286555 8.15379860 1.10068902
O 14.26518045 8.16284759 3.33863624
O 14.26486848 8.15755345 7.81727282
O 14.27821427 12.71614857 7.82348037
O 9.08002107 9.05466039 7.82002982
O 1.32143021 9.06000748 3.33394922
O 5.20376081 11.80780609 1.08393316
O 6.50699722 12.72060566 3.32667916
O 5.21005993 11.81554034 5.56800215
O 2.61732622 8.15227908 5.58153372
O 2.61305167 12.70844715 5.57131707
O 5.19850437 9.06855990 1.10084228
O 5.19146051 9.07736436 5.56836917
O 1.32809183 11.79300224 7.81766170
O 1.32231018 11.80808754 3.32355777
O 2.61274078 12.71377768 1.08476587
O 2.61088439 8.14924545 1.09528635
O 6.50395840 8.16192390 3.33577128
O 6.48611460 8.15554055 7.81026325
O 6.50447392 12.71199609 7.81339071
O 1.32191207 9.04941981 7.82914635
O 1.32634962 1.76155737 3.33654412
O 5.20239403 4.50772200 1.10403088
O 6.49602657 5.41662556 3.34713424
O 5.20335463 4.49704755 5.58722406
O 2.60915596 0.85256164 5.58076817
O 2.61056052 5.40909280 5.58156501
O 5.20403036 1.76421499 1.10161013
O 5.19148752 1.75638576 5.58949947
O 1.31730029 4.50573878 7.81718039
O 1.32873896 4.50417796 3.33354590
O 2.60727487 5.40726644 1.08799022
O 2.61476791 0.85589782 1.09200488
O 6.49279470 0.85954722 3.34854058
O 6.49506457 0.85286798 7.82723600
O 6.50638589 5.41499649 7.82955120
O 1.31791053 1.76359812 7.82554921
O 9.08492849 1.76948944 3.34160148
O 12.97703742 4.51448802 1.09250838
O 14.26819267 5.42102251 3.33381344
O 12.97161027 4.50027919 5.57855658
O 10.37893976 0.86066731 5.58298764
O 10.39025465 5.41197843 5.57147531
O 12.97109783 1.77012267 1.09826325
O 12.96487660 1.75977162 5.57869365
O 9.09585518 4.50816872 7.82132043
O 9.08380839 4.51182796 3.33494023
O 10.38350283 5.41811845 1.09661946
O 10.38462157 0.85899795 1.09434091
O 14.26801567 0.85705220 3.34086472
O 14.25772196 0.85687776 7.81894775
O 14.25677189 5.41921365 7.81767641
O 9.08113232 1.76952421 7.82146173
O 1.30590369 1.76278603 12.30587485
O 5.20232705 4.49833785 10.06740050
O 6.50059118 5.40332952 12.30458165
O 5.20514581 4.49733630 14.55496033
O 2.60864165 0.84296865 14.55015933
O 2.61864742 5.41598886 14.54498731
O 5.19184747 1.75734509 10.06281819
O 5.19823803 1.75877426 14.55734105
O 1.32464907 4.50301011 16.78561948
O 1.32128132 4.50660832 12.31572782
O 2.61453312 5.40606960 10.06522672
O 2.59931760 0.85207709 10.06694562
O 6.48607617 0.85480732 12.30798922
O 6.49311944 0.84906874 16.79907186
O 6.49559938 5.41119694 16.80437103
O 1.31105525 1.76117282 16.79703976
O 9.08365522 9.06609466 12.30282482
O 12.98055199 11.80765723 10.06766288
O 14.26844033 12.71354815 12.31059604
O 12.97682939 11.81324707 14.54921427
O 10.37804453 8.15441983 14.55656301
O 10.37742468 12.71845412 14.54617857
O 12.97428187 9.06154403 10.06289860
O 12.97507069 9.06647728 14.55207392
O 9.08608108 11.80665630 16.79214909
O 9.09353178 11.80557015 12.30458691
O 10.38966320 12.70847225 10.05964244
O 10.38341476 8.16000413 10.06266683
O 14.25386556 8.14918443 12.30606075
O 14.25898855 8.15007504 16.78968449
O 14.26816514 12.70707526 16.79411400
O 9.08455155 9.06038661 16.80404584
O 1.31226333 9.04768159 12.31263581
O 5.20742074 11.80859634 10.05304797
O 6.49998582 12.70933989 12.29977163
O 5.20980437 11.80402033 14.55047994
O 2.61130884 8.15317309 14.56189226
O 2.62100600 12.69933780 14.54145687
O 5.20114716 9.06474345 10.05194405
O 5.20229291 9.06392594 14.55826783
O 1.32658237 11.79816540 16.78925255
O 1.32426458 11.79324364 12.30346134
O 2.62046583 12.71326850 10.06138821
O 2.61466544 8.14440878 10.07375922
O 6.49204249 8.15323700 12.30619836
O 6.49602762 8.15394033 16.80151837
O 6.50075729 12.71345233 16.78913436
O 1.32263192 9.05777976 16.79575397
H 9.53063893 1.46306484 11.51706981
H 9.09444504 2.73157792 12.28431247
H 12.97552619 3.54259557 10.08803119
H 13.43472140 4.79704240 10.86562066
H 15.17053135 5.08450754 12.33781386
H 13.82824578 5.07166687 13.10770465
H 12.97797716 3.52449055 14.57098787
H 13.42347859 4.78818455 15.34401000
H 11.27751449 1.17832408 14.52988963
H 9.93545436 1.18779934 13.76115773
H 11.28508402 5.07049644 14.57341845
H 9.94349614 5.08555465 15.34129521
H 13.39217220 1.43730243 9.27433743
H 12.05194925 1.43530348 10.04532575
H 13.42776524 1.41439080 15.32923840
H 13.43693181 1.41973122 13.78158600
H 8.16885333 4.80708640 16.79990528
H 9.06240242 3.54690606 16.79823251
H 9.56292125 4.84637480 11.52971149
H 9.56000034 4.83421278 13.07648900
H 10.41152696 6.38616853 10.06313035
H 11.30573021 5.12322170 10.06775151
H 10.36257658 14.49244002 10.04330012
H 9.91516115 1.15212801 9.26907059
H 15.16265754 1.19149931 12.28346953
H 13.81746053 1.18433981 11.52073068
H 15.15842713 1.17891463 16.81880672
H 13.82065092 1.17780102 17.59404665
H 13.81095199 5.11270054 17.58458047
H 14.25109596 6.36920588 16.80141118
H 9.55455971 1.44083885 17.57072119
H 9.55014881 1.44015492 16.02288562
H 9.56410565 8.73986948 4.11266683
H 9.56081661 8.73305490 2.56695895
H 13.41271622 12.12939292 0.29549965
H 12.07056187 12.13611301 1.06106023
H 13.79861850 12.38603563 2.55403424
H 13.79565069 12.39074774 4.10161140
H 12.07198238 12.14551178 5.60432798
H 13.41703546 12.14726014 6.36786332
H 11.30224589 8.45776719 5.58592629
H 10.41448979 7.19115312 5.57555565
H 9.91957117 12.39494338 4.80909502
H 9.91093206 12.38543317 6.35575123
H 13.42457627 8.76149136 0.29760536
H 12.97793352 10.02301011 1.06926293
H 13.43527068 8.77186982 6.36905016
H 12.98174778 10.03470307 5.60149386
H 9.06725306 10.83218754 7.81449509
H 8.17764150 12.09725022 7.81974426
H 9.55455462 12.11387577 2.54170393
H 9.10788229 10.85054086 3.31357545
H 10.37953745 13.68454828 1.07153131
H 9.92638207 12.42593480 0.29410141
H 10.40151913 7.19053931 1.09991280
H 11.29908548 8.45065842 1.09569001
H 13.79715031 8.49816352 4.11090954
H 13.79518772 8.48711462 2.56293854
H 14.27970249 7.19438076 7.81530124
H 15.18319213 8.44824946 7.82219688
H 15.18014874 12.37829462 7.84117564
H 13.84267211 12.38685216 8.61674079
H 9.52205648 8.72465960 7.03052376
H 8.17598660 8.72416652 7.79355004
H 0.40546521 8.76081698 3.33520817
H 1.29618714 10.02247207 3.33060834
H 4.28894581 12.10874007 1.08927970
H 5.17986461 10.84496310 1.08965183
H 6.06724069 12.38877170 2.53685707
H 7.41191461 12.39102754 3.30066049
H 5.67889759 12.14464778 6.34238819
H 5.68043907 12.14522141 4.79494571
H 2.17304425 8.48357433 4.79386261
H 3.51909097 8.48998210 5.55249816
H 2.18605885 12.37141093 6.36606404
H 3.51983790 12.38418539 5.58438336
H 5.66555238 8.73865743 0.32577403
H 5.67450999 8.74035339 1.87125086
H 5.65942285 8.77541544 4.78263057
H 5.21130589 10.04040743 5.54993837
H 1.78636637 12.09655218 8.60834421
H 1.34018425 10.83004882 7.84050123
H 1.75620742 12.13136700 4.12036953
H 0.41746456 12.13693695 3.34467704
H 2.15562761 12.41613183 1.87883728
H 2.60430543 13.67675446 1.10574601
H 2.17402689 8.47686925 1.88897756
H 3.51663139 8.47501979 1.11941798
H 6.51959473 7.19899034 3.34343454
H 7.42142495 8.45518084 3.33986908
H 6.01833473 8.49274228 7.03915099
H 6.01706303 8.48390481 8.58524693
H 6.49391997 13.67482932 7.83953830
H 6.04471473 12.41105995 8.60470654
H 1.78799452 8.71573833 8.60305840
H 1.79486138 8.72565454 7.05504435
H 1.78511249 1.46179369 4.12873493
H 1.33536083 2.72425560 3.35701163
H 5.18225576 3.54471591 1.10286440
H 4.28624308 4.80454422 1.09640557
H 6.02610869 5.08538353 4.11978548
H 6.02330682 5.09042872 2.57373063
H 4.28767714 4.79452592 5.58832891
H 5.18267523 3.53402240 5.59120960
H 3.52748977 1.14381541 5.58723389
H 2.62629743 14.49159998 5.58031184
H 2.16233973 5.11518501 4.78121067
H 2.61088467 6.37224699 5.56006278
H 5.63973879 1.43498848 0.30833020
H 4.29841394 1.43710865 1.07824352
H 5.66540217 1.43120346 6.36229382
H 5.66088622 1.42992236 4.81423142
H 0.41205913 4.83352992 7.79994435
H 1.74913422 4.84185318 7.02416003
H 1.75903876 4.82768379 2.53437988
H 0.42444917 4.83419198 3.31546501
H 2.60238347 6.37040861 1.07243924
H 2.15498534 5.11406470 0.28982466
H 2.14992691 1.18642410 1.86826566
H 2.14102751 1.18563896 0.32111358
H 6.48641119 14.49901194 3.31711732
H 6.03823150 1.16299700 2.55515127
H 6.05699226 1.18289769 8.61927004
H 7.39749929 1.18856786 7.84742611
H 6.48521583 6.37754166 7.80136167
H 6.04713523 5.10602060 7.04155303
H 1.32264310 2.72657880 7.80038413
H 1.77006733 1.46266812 7.03022059
H 9.51932482 1.44057292 4.13580846
H 8.18107455 1.43772817 3.36037890
H 13.40933749 4.84871119 1.88579621
H 12.06962534 4.83690451 1.11298097
H 13.81285313 5.11615436 4.12561501
H 14.25682188 6.38400266 3.35988563
H 12.95404766 3.53708878 5.57509755
H 12.05424662 4.79368352 5.57188121
H 11.29620623 1.15513228 5.57975758
H 10.39814893 14.49982709 5.58594943
H 9.91904433 5.08998668 6.34701695
H 9.91399619 5.08759249 4.79943717
H 13.42890246 1.47021120 1.89073967
H 12.98273544 2.73308635 1.11701769
H 13.43848587 1.43170276 4.80673630
H 13.43577067 1.43263019 6.35288840
H 9.53483395 4.83777499 8.61246194
H 8.19195230 4.83971292 7.84477195
H 9.06170828 3.54876069 3.33817156
H 8.16771501 4.80980538 3.33974401
H 9.90995913 5.08719525 1.86728187
H 9.91467224 5.09035624 0.32146938
H 11.28778327 1.19259745 1.11970351
H 9.94497334 1.18479363 1.88667226
H 15.18505697 1.15075385 3.33993450
H 14.28350193 14.49606876 3.32905250
H 14.28960109 14.49639584 7.82654274
H 15.17088021 1.16276846 7.82525306
H 13.79462873 5.08864155 8.59511025
H 13.78471869 5.08376682 7.04790639
H 9.09533108 2.73247677 7.80648024
H 9.54026468 1.47284253 7.02843325
H 1.76694863 1.46883867 11.51269730
H 1.32694101 2.72581597 12.29705168
H 5.67051116 4.82862248 10.84195125
H 5.67392808 4.83043826 9.29632278
H 7.41874864 5.11112484 12.30206154
H 6.51739883 6.36611839 12.30679135
H 5.20885996 3.53429463 14.53652738
H 5.66613555 4.79245148 13.76289123
H 2.59796731 14.48221071 14.52747555
H 2.15157175 1.14380586 13.75784779
H 2.64290601 6.37907407 14.55750346
H 3.53302237 5.11343715 14.55150532
H 5.20522752 2.72025559 10.08474832
H 5.64570434 1.45734066 10.85779663
H 5.63166159 1.42952719 15.35187374
H 4.29437390 1.42686742 14.57221853
H 0.41811463 4.82742664 16.76392739
H 1.75989216 4.83421615 15.99284259
H 1.78564002 4.83255129 11.53767845
H 1.79714685 4.84139602 13.08371718
H 2.17714178 5.07973748 9.27173441
H 3.51840143 5.07443327 10.04411118
H 2.16798437 1.18095859 9.27065877
H 3.50516152 1.17842615 10.04719799
H 7.38996263 1.18634658 12.32711422
H 6.05301213 1.17857666 13.10481089
H 7.40776938 1.15063344 16.79819819
H 6.51995275 14.48819396 16.79597182
H 6.02329410 5.08521231 17.57805425
H 6.02711327 5.08136012 16.03053188
H 1.32925266 2.72370809 16.76813925
H 1.76253284 1.45203396 16.00466704
H 9.53766680 8.75982803 13.09485293
H 9.09940545 10.02893482 12.33000143
H 12.95734579 10.84482342 10.06645585
H 12.06423385 12.10502981 10.06272609
H 14.26457564 13.67659258 12.28703969
H 13.81355088 12.41515820 11.51558886
H 12.07138956 12.14022349 14.53004607
H 13.40921815 12.14464266 13.75447720
H 10.40233366 7.19140205 14.55435603
H 11.29297049 8.45401635 14.55359390
H 9.92255455 12.41563824 15.33914940
H 10.36434321 13.68133918 14.56818957
H 12.06703375 8.73945582 10.03926806
H 13.40803430 8.73621582 9.26668236
H 12.98222742 10.02937416 14.53126798
H 13.42155008 8.76778937 13.75263677
H 9.07066765 10.84367328 16.79687482
H 8.16795674 12.09742895 16.79101409
H 8.18859508 12.13443160 12.32556667
H 9.52790640 12.14057085 13.09673546
H 9.91967725 12.37131154 9.28952830
H 9.92012571 12.38431965 10.83568084
H 9.90684025 8.48308726 9.29079287
H 9.91812981 8.49070096 10.83850177
H 14.24155718 7.18626637 12.29256323
H 13.80103036 8.44427615 11.50861894
H 13.82832357 8.48200371 15.99427253
H 15.16453257 8.47667982 16.77317466
H 13.81392599 12.41240545 15.99722454
H 14.25598656 13.66994625 16.77970723
H 9.55699991 8.73401669 17.57742390
H 9.55608955 8.73219456 16.03107632
H 1.74401167 8.72720070 13.11161393
H 0.40789838 8.71684952 12.32991312
H 4.30409498 12.14258199 10.07579916
H 5.64239043 12.13332409 10.84891170
H 6.04498342 12.40823321 13.09344848
H 6.48816798 13.67208805 12.32202108
H 4.29199613 12.09630212 14.54421852
H 5.19309380 10.84095722 14.55058506
H 3.51469217 8.48621316 14.57612956
H 2.18067050 8.48364923 15.35814142
H 2.15110425 12.36440025 13.77019475
H 2.15120334 12.37410713 15.31679913
H 4.28680895 8.76219010 10.06676279
H 5.17645914 10.02755823 10.05500131
H 5.66726703 8.73587196 13.78156964
H 5.67522455 8.73195151 15.32884579
H 0.42180732 12.12734173 16.80936512
H 1.76109729 12.13372618 17.58086911
H 1.29868274 10.83037399 12.30272422
H 0.40999095 12.09573242 12.30427792
H 2.59937722 13.67627922 10.07669719
H 2.16006266 12.41198846 10.85142420
H 2.60816118 7.18118140 10.08718569
H 2.15226345 8.43563549 10.86686047
H 6.05541607 8.48152660 11.51321761
H 7.39437599 8.48873353 12.28555539
H 6.51377928 7.19093985 16.80378896
H 7.41305225 8.44854151 16.80394036
H 6.03029663 12.38650895 16.01447863
H 6.02724802 12.38566358 17.56125002
H 1.77301982 8.75880001 17.59307994
H 1.33195315 10.02081793 16.81754818
