384

O 9.08220821 1.76618713 12.31871005
O 12.96022275 4.50647988 10.06546483
O 14.27298597 5.41866051 12.28912453
O 12.97905220 4.51483201 14.54216859
O 10.39078539 0.84980858 14.54420475
O 10.38438369 5.42049868 14.55361980
O 12.95963354 1.76346465 10.05985585
O 12.97915232 1.76896752 14.54782481
O 9.09679670 4.49628947 16.80063016
O 9.07986079 4.50489969 12.31502136
O 10.38447157 5.42247659 10.07677229
O 10.37147907 0.86160442 10.07360704
O 14.26214776 0.85851954 12.29766007
O 14.26314080 0.85379006 16.79426805
O 14.26466156 5.41932088 16.79514953
O 9.09382541 1.75767347 16.78628639
O 9.08124444 9.07244508 3.33812037
O 12.97396060 11.79886613 1.08920682
O 14.27208936 12.70997376 3.32640925
O 12.97758200 11.81095353 5.57398708
O 10.37101140 8.15617071 5.57133904
O 10.39462652 12.72131333 5.58568816
O 12.95692152 9.05160588 1.09237018
O 12.96169478 9.06617765 5.57522652
O 9.09665140 11.79682592 7.82326393
O 9.10086059 11.81246367 3.33020847
O 10.38985523 12.72096222 1.09702499
O 10.37218998 8.15088411 1.09766530
O 14.25289010 8.15319648 3.33324108
O 14.25582441 8.16470050 7.82166638
O 14.26898407 12.72551150 7.81966742
O 9.07566049 9.05198631 7.81821429
O 1.31171642 9.06189237 3.33253193
O 5.20713710 11.78082638 1.08960786
O 6.50786351 12.70205508 3.33030441
O 5.21303127 11.81082160 5.58182689
O 2.60829069 8.15003752 5.57538198
O 2.62701555 12.70874502 5.57142893
O 5.18733311 9.04438808 1.09718723
O 5.19360811 9.06921215 5.57065554
O 1.32006211 11.80375722 7.81129058
O 1.32701803 11.79697779 3.34136110
O 2.62467791 12.70483527 1.09772123
O 2.59902701 8.14576911 1.09025882
O 6.49355400 8.14833318 3.34037788
O 6.48186438 8.14845091 7.81402150
O 6.50815153 12.71174672 7.82587241
O 1.31395164 9.05842876 7.81916769
O 1.32083396 1.75847133 3.34266583
O 5.21855178 4.49968480 1.08696452
O 6.49071117 5.40363007 3.33662231
O 5.20847386 4.48882022 5.58342189
O 2.61551453 0.84750218 5.58787641
O 2.61947064 5.40815805 5.57789308
O 5.20666008 1.75651833 1.09606270
O 5.20858616 1.74681924 5.58182628
O 1.31863426 4.51742311 7.81958734
O 1.32981071 4.49474507 3.33121810
O 2.62268756 5.40431019 1.08802593
O 2.62071130 0.85059872 1.10534938
O 6.49427137 0.84090831 3.33782741
O 6.49990337 0.84909137 7.83113062
O 6.50415039 5.40373197 7.82149930
O 1.32314929 1.77301315 7.82138230
O 9.07990573 1.75177698 3.34237272
O 12.97968821 4.50470017 1.09377432
O 14.27305305 5.41137127 3.33670756
O 12.97794724 4.50411575 5.58142949
O 10.37766942 0.86433306 5.59263743
O 10.39669150 5.41829156 5.57796457
O 12.97061769 1.76606379 1.09305485
O 12.96755421 1.75764307 5.58404248
O 9.10241753 4.51599320 7.82750190
O 9.08631508 4.49416737 3.34189149
O 10.38333406 5.40804663 1.10276432
O 10.38349243 0.85688415 1.09322131
O 14.25997742 0.85925024 3.33602103
O 14.26772218 0.86075990 7.82359768
O 14.25965405 5.42436984 7.82654297
O 9.07745657 1.77699720 7.82978144
O 1.31913342 1.76552333 12.30693244
O 5.19938073 4.50565121 10.05626246
O 6.48845677 5.41813693 12.30346505
O 5.20157830 4.51006329 14.55039729
O 2.60784913 0.85479249 14.55168673
O 2.61154897 5.39816449 14.54496030
O 5.19803757 1.75662358 10.06968252
O 5.19817098 1.76681077 14.55132981
O 1.31877617 4.49472536 16.79252828
O 1.32343707 4.50207688 12.30060354
O 2.61212031 5.41414204 10.06249070
O 2.60752081 0.85003940 10.06503986
O 6.49513348 0.85141482 12.31491810
O 6.49872713 0.85480556 16.79420216
O 6.50969109 5.41078797 16.78601957
O 1.31927904 1.75161301 16.80433599
O 9.08183924 9.07314517 12.31431663
O 12.98529629 11.81432560 10.06305449
O 14.27181281 12.71876561 12.31325658
O 12.97804732 11.80315761 14.55593773
O 10.37753308 8.16270823 14.55464201
O 10.39177926 12.70973270 14.55198327
O 12.96062321 9.07436691 10.06446600
O 12.97507549 9.06342987 14.55137351
O 9.08959984 11.80485872 16.79840385
O 9.09206410 11.81364258 12.30878623
O 10.38983201 12.71882308 10.06217619
O 10.37663978 8.16172688 10.06207180
O 14.25099521 8.16240873 12.30203559
O 14.27317672 8.15916779 16.79617891
O 14.26666216 12.71556004 16.78956835
O 9.07762217 9.06159004 16.79923083
O 1.31273203 9.06448030 12.30263833
O 5.20405623 11.80651304 10.06128776
O 6.49922518 12.71260067 12.30727036
O 5.20869317 11.80356546 14.55693771
O 2.59891521 8.14653919 14.54974050
O 2.61945882 12.71547699 14.55547129
O 5.20012832 9.05922908 10.06050607
O 5.18984956 9.06557556 14.55351387
O 1.32915220 11.81336271 16.79785186
O 1.32844395 11.80794790 12.31023074
O 2.60919986 12.70725928 10.05976356
O 2.61480468 8.15241640 10.06371712
O 6.48785531 8.15724176 12.31323742
O 6.48608452 8.15367441 16.79785184
O 6.49968506 12.71130519 16.80609693
O 1.32582449 9.07181129 16.79422835
H 9.55858510 1.43363524 13.08697894
H 9.54799855 1.43769283 11.54201221
H 13.43245458 4.80554864 10.85017992
H 12.97563817 3.54347744 10.08273624
H 13.83930828 5.09646564 13.08633434
H 15.17869355 5.09144562 12.31292144
H 13.41110689 4.84796182 15.33563866
H 12.07402174 4.84378162 14.55975786
H 10.41671508 14.48922729 14.54845877
H 11.30436710 1.15421982 14.55153078
H 9.92141986 5.12004898 13.76435813
H 10.36767783 6.38339261 14.53462566
H 13.42971273 1.43256315 10.83259654
H 13.43251885 1.43960387 9.28567230
H 12.98677403 2.73197083 14.56376019
H 13.43241403 1.47419146 15.34484018
H 9.10932441 3.53355054 16.77054086
H 9.54944841 4.80435802 16.00829586
H 8.16428073 4.80287175 12.30784630
H 9.05883635 3.54185660 12.31868594
H 11.28832332 5.08956261 10.10092172
H 9.94305010 5.08920530 10.86505696
H 11.28777003 1.15913926 10.06350227
H 10.39532280 14.50082118 10.06395855
H 13.81114421 1.16466228 13.09185961
H 14.25024879 14.49798714 12.32599929
H 14.24597988 14.49279077 16.80962629
H 13.80605903 1.15227635 17.58773822
H 15.17685199 5.11023271 16.79109476
H 14.29760493 6.38201678 16.79475730
H 8.18810736 1.43064613 16.77061623
H 9.52632894 1.42270043 15.99382846
H 9.09654557 10.03528953 3.31334895
H 9.53542706 8.76722383 2.54540621
H 13.43825093 12.09579218 1.87935498
H 12.97892779 10.83602593 1.11085038
H 13.83630814 12.38152597 4.12005644
H 15.17899495 12.38691652 3.35243028
H 13.41071459 12.14299936 6.36736147
H 12.07307469 12.14241449 5.59371941
H 9.94006123 8.49337081 4.77841231
H 11.27524060 8.48754828 5.55823102
H 10.37404616 13.68376981 5.61136355
H 9.93085971 12.41229074 6.37121313
H 13.42486025 8.72024818 1.86651782
H 13.43379631 8.73129934 0.31950517
H 12.97577485 10.02897871 5.59344478
H 13.41784039 8.76843667 6.36959011
H 8.18219942 12.09915491 7.82703326
H 9.06912436 10.83407112 7.81894474
H 9.56492469 12.14051177 4.10731089
H 9.57369452 12.14907536 2.56099513
H 10.41593635 13.68401372 1.08934702
H 11.30375882 12.41681615 1.08978451
H 11.29048995 8.44196167 1.09457710
H 10.38817759 7.18781956 1.10164486
H 13.79486007 8.45184614 4.12608419
H 14.24984520 7.19045353 3.35510712
H 15.17286654 8.45922674 7.82216982
H 14.27544470 7.20172123 7.82225191
H 15.17244450 12.39213859 7.83170536
H 13.83993199 12.39571324 8.61653557
H 8.17113142 8.72233599 7.79702366
H 9.50975964 8.72966002 7.02112206
H 1.29024822 10.02500327 3.33401439
H 0.39636443 8.76276633 3.33384797
H 4.29396422 12.08706709 1.09469566
H 5.17828702 10.81797061 1.09359982
H 6.07000390 12.36022207 2.54380129
H 7.41541422 12.38013565 3.30744048
H 5.68774412 12.12993197 4.80708014
H 5.68233628 12.14156534 6.35516765
H 2.16614060 8.47681322 4.78463447
H 3.51025061 8.48644959 5.55066581
H 3.54534777 12.41796920 5.57818357
H 2.64040853 13.67184677 5.58263112
H 5.66243606 8.71734302 1.86830925
H 5.65522544 8.71627713 0.32158730
H 5.20989346 10.03202176 5.59611037
H 5.64370298 8.76312849 6.36534299
H 1.33033320 10.84089004 7.79512095
H 1.78347418 12.09914763 7.02030335
H 1.80275580 12.12678716 4.11142057
H 1.79324771 12.12454015 2.56496340
H 2.16260285 12.41352527 0.30410836
H 2.61531120 13.66777492 1.08291987
H 2.16391210 8.47347618 1.88460493
H 3.50722140 8.46553312 1.11544831
H 7.39538167 8.48556929 3.35884381
H 6.05506909 8.48701391 4.12843300
H 6.47538856 7.18559941 7.83270673
H 6.02993273 8.44446181 8.61146606
H 6.04369568 12.41159826 8.61449269
H 6.49823616 13.67458748 7.84719663
H 1.78290122 8.72896835 7.04514590
H 1.78527830 8.73074280 8.59236349
H 1.30537017 2.72171362 3.33836324
H 0.40393401 1.46437307 3.34251341
H 4.31462748 4.83165095 1.09897645
H 5.64473264 4.82993294 1.88539621
H 6.48678940 6.36648694 3.36093521
H 6.03691706 5.10339606 4.13134213
H 4.29373426 4.79020187 5.58479565
H 5.18364142 3.52594040 5.57617897
H 2.14423500 1.17701054 4.81523964
H 2.14769852 1.18216238 6.36067172
H 2.15707965 5.11535943 6.37054027
H 2.60860245 6.37116100 5.59267764
H 5.19150427 2.71977041 1.09613718
H 4.28833718 1.46551246 1.10080004
H 5.63778965 1.41443262 4.78603203
H 4.30337340 1.41805751 5.56715176
H 0.41463113 4.84810609 7.84249561
H 1.75493773 4.84103135 8.61522447
H 1.80230042 4.82205754 2.55845674
H 1.79725579 4.82401808 4.10612715
H 2.59933524 6.36680480 1.06735475
H 2.16500714 5.09908293 0.29754665
H 2.14634304 1.17567358 1.87817193
H 2.14870903 1.17645451 0.33157939
H 6.03895684 1.14452698 2.54498758
H 6.48753191 14.48005053 3.31212239
H 7.40050648 1.19011324 7.81177662
H 6.06210657 1.17203482 7.03634258
H 7.41318523 5.08664491 7.80185397
H 6.07161724 5.06845508 7.02898266
H 1.29836143 2.73586698 7.82582139
H 0.40799618 1.47207763 7.82641878
H 8.17816096 1.41410696 3.31721620
H 9.52026225 1.42835593 2.54919535
H 12.07326932 4.82952052 1.08011487
H 13.40972759 4.83976839 0.29971505
H 15.17875165 5.08506638 3.31629200
H 13.83949820 5.08381208 2.54157245
H 13.41838169 4.82851416 4.78879252
H 12.07628087 4.84248822 5.55548811
H 9.90833975 1.19871667 6.36424260
H 9.90431081 1.18190371 4.81639824
H 10.37533147 6.38118236 5.55173751
H 9.93192945 5.10923514 4.79327390
H 13.42374223 1.46734220 1.88869108
H 12.98637302 2.72893926 1.10878585
H 12.04900121 1.46743399 5.58514854
H 12.95224054 2.72066224 5.58124646
H 9.57509433 4.84578716 7.05614388
H 9.56566659 4.84788551 8.60404702
H 9.06417646 3.53113305 3.34283873
H 8.17080008 4.79247982 3.34175801
H 9.91641249 5.07421537 0.32936598
H 9.91519235 5.07483761 1.87568179
H 11.28519651 1.19527533 1.07838963
H 9.95108085 1.18148090 0.29633555
H 14.25767606 14.49854490 3.34926878
H 13.80164338 1.14922735 4.13191853
H 14.26110798 14.49987248 7.80327233
H 13.80625919 1.15746157 7.03187928
H 13.78722541 5.09071533 8.59637289
H 13.79684667 5.09342004 7.04945858
H 9.53608707 1.47070328 8.61949973
H 9.09897728 2.73974295 7.85343012
H 1.75130137 1.43588963 11.51186686
H 0.41378632 1.43747507 12.28897014
H 5.66379413 4.79897657 9.26475595
H 5.21455035 3.54296559 10.04353362
H 6.03223684 5.12120692 11.50924627
H 6.47887360 6.38107370 12.28692752
H 5.66856462 4.83660761 13.77382009
H 5.67650046 4.83839479 15.32135945
H 2.17466976 1.18615300 13.75805150
H 3.51167598 1.18701762 14.53618847
H 3.53089356 5.11018331 14.54942099
H 2.62451443 6.36118146 14.54779215
H 5.66982629 1.42394307 9.29880988
H 5.66696121 1.43200565 10.84563935
H 5.21207464 2.72965315 14.57337701
H 5.65152723 1.46406345 15.34543117
H 1.77628298 4.78624037 15.99676420
H 1.32538838 3.53160625 16.77881287
H 1.32795856 3.53902436 12.31918404
H 1.78165138 4.79866583 13.09435473
H 3.51684956 5.08360063 10.07393577
H 2.18226289 5.07700026 10.85589006
H 2.17668549 1.19133797 9.27417214
H 3.51364468 1.17610559 10.05088260
H 6.05735629 1.18259469 13.10642522
H 7.39982784 1.18098929 12.33882425
H 6.04101306 1.15588614 17.58646730
H 6.48515700 14.49421160 16.81755390
H 7.41221837 5.07534352 16.80624644
H 6.07375169 5.08386894 17.58025392
H 0.41463014 1.42139677 16.78297090
H 1.75456387 1.42257304 16.01084638
H 9.09802519 10.03592405 12.28874690
H 9.53528693 8.76916856 11.52098813
H 13.43704479 12.11086393 10.86012699
H 12.98605946 10.85130874 10.08536522
H 15.17850442 12.39440761 12.33313502
H 13.83812985 12.38536826 13.10583079
H 12.95457946 10.83997800 14.54981275
H 12.06199471 12.10110324 14.54779342
H 9.90908084 8.49824347 13.78289283
H 9.90842789 8.48889221 15.32992224
H 9.91831214 12.38719525 13.77775381
H 9.91899011 12.38522392 15.32546390
H 13.39542779 8.74810693 9.26943950
H 12.05407940 8.74913896 10.04059452
H 13.40096466 8.73351666 13.75268912
H 12.06990752 8.73490526 14.53864615
H 8.18480139 12.13411412 16.82269237
H 9.52975340 12.14261106 17.58546925
H 9.53124277 12.14506017 11.51827755
H 8.18724709 12.14283964 12.28339723
H 9.95779710 12.38181864 9.27012480
H 11.29557325 12.39228550 10.04592302
H 10.36830934 7.19844404 10.05482993
H 9.91263785 8.44892911 9.26846005
H 14.24948213 7.19976746 12.27485602
H 13.79579749 8.46280561 11.50793569
H 15.17422090 8.49863573 16.77723558
H 13.83617926 8.48409328 16.00182722
H 13.79479785 12.38320685 16.01809634
H 13.80445826 12.37699879 17.56359114
H 9.53497329 8.75882181 17.59100720
H 9.09014434 10.02431866 16.82342525
H 1.74141647 8.73561843 13.09984979
H 0.40495998 8.74361497 12.32033075
H 5.18502315 10.84362248 10.06240512
H 4.28731264 12.10129149 10.06022529
H 6.48596486 13.67559347 12.29170041
H 6.03985929 12.41365581 11.51542036
H 5.64427185 12.13038492 13.76252546
H 4.30506947 12.13633933 14.53433849
H 2.17069990 8.47938311 15.34593967
H 3.50164014 8.48200568 14.56367293
H 2.60677971 13.67843027 14.53480414
H 2.16756607 12.41460593 13.75978236
H 4.29532890 8.72910877 10.08408364
H 5.63354756 8.73890646 10.85858869
H 5.64640596 8.76583001 15.34659082
H 5.20317132 10.02864172 14.57141428
H 1.76378995 12.13996041 16.00251000
H 0.42278806 12.13795047 16.77379364
H 1.33679938 10.84521916 12.29093135
H 1.77964267 12.10537150 11.51298023
H 2.59925574 13.67019366 10.04370678
H 2.15605079 12.41245609 9.26271065
H 2.60173872 7.18910571 10.08311865
H 2.15186909 8.45045545 10.85392984
H 6.05393219 8.48558390 13.10795252
H 7.39161610 8.48890090 12.33095369
H 6.51298751 7.19083974 16.78756704
H 7.40079916 8.45524820 16.79991017
H 6.02913454 12.36748164 17.57326165
H 6.03512144 12.38629233 16.02769398
H 1.33802389 10.03463586 16.81655169
H 1.77501635 8.76938144 17.59093953
