384

O 9.08514879 1.76467939 12.32487226
O 12.97178852 4.49427432 10.06955261
O 14.26193121 5.40287351 12.30973496
O 12.96638984 4.49261185 14.55847959
O 10.36269705 0.85234503 14.57258868
O 10.37712644 5.42160525 14.56228534
O 12.96826375 1.75827480 10.07014586
O 12.94597173 1.75219311 14.55495937
O 9.08682673 4.51360369 16.79764325
O 9.10068723 4.50248653 12.31560332
O 10.38504012 5.40868265 10.06745379
O 10.37467221 0.85614333 10.07478797
O 14.25330997 0.84502893 12.31118316
O 14.24878567 0.84961038 16.78314400
O 14.26915908 5.40539258 16.79287771
O 9.08039839 1.76824833 16.81356856
O 9.08800580 9.06620316 3.34204959
O 12.97201772 11.80830383 1.08669975
O 14.26932344 12.71252864 3.33181858
O 12.98509368 11.81144757 5.58152826
O 10.37666331 8.16117863 5.58453671
O 10.38959499 12.71448002 5.57579815
O 12.97514883 9.06126981 1.08769049
O 12.97375155 9.06497929 5.58262396
O 9.09672756 11.79700641 7.81455981
O 9.08866162 11.81092904 3.33099695
O 10.38100695 12.72008673 1.09259600
O 10.39376517 8.15825443 1.10967687
O 14.26660436 8.14909290 3.33766942
O 14.27044541 8.15347644 7.82410099
O 14.26819514 12.71216051 7.83096042
O 9.08887039 9.05119170 7.83215718
O 1.32200679 9.05533572 3.33332334
O 5.20138667 11.81172590 1.09723249
O 6.49778802 12.72123355 3.33847067
O 5.21289721 11.81103130 5.58261453
O 2.62735408 8.15449774 5.56894411
O 2.61542750 12.69858598 5.57981388
O 5.18746539 9.06628559 1.08330494
O 5.21696853 9.06981918 5.57726874
O 1.31812790 11.79338913 7.81892537
O 1.32173226 11.79401985 3.32822093
O 2.61026404 12.70396995 1.07695450
O 2.59862563 8.14832247 1.08332824
O 6.49340019 8.16186130 3.32546268
O 6.49683835 8.14759331 7.82392401
O 6.50723574 12.71909425 7.82584338
O 1.32846425 9.05627431 7.81253280
O 1.31953250 1.76024972 3.32726054
O 5.20038371 4.50589142 1.09673789
O 6.50165074 5.42209801 3.34365672
O 5.20646567 4.49480829 5.58706875
O 2.61392564 0.84143388 5.57030162
O 2.61198824 5.40828078 5.56015414
O 5.19218041 1.76922723 1.09316329
O 5.20015518 1.75517501 5.57192189
O 1.33932651 4.50139491 7.81174087
O 1.32623830 4.50281412 3.32272263
O 2.61681806 5.40687621 1.07910954
O 2.60088429 0.85128922 1.08457257
O 6.48718182 0.85802660 3.32636211
O 6.49264768 0.85843730 7.82219402
O 6.49950018 5.40927409 7.82103720
O 1.32101790 1.75523185 7.80913650
O 9.08170907 1.77322891 3.34663339
O 12.97394099 4.50818512 1.09020603
O 14.26604239 5.40971657 3.33974393
O 12.98102431 4.49428339 5.59005909
O 10.37984594 0.85358829 5.58875300
O 10.39565168 5.42101886 5.58176425
O 12.96701354 1.76511290 1.09265841
O 12.97326217 1.75380851 5.57889470
O 9.09589527 4.51597630 7.82232695
O 9.09851867 4.51759240 3.34205560
O 10.39003960 5.41672971 1.09699192
O 10.38409541 0.86100091 1.10622990
O 14.25931254 0.85258213 3.33003684
O 14.26068155 0.85428366 7.82606641
O 14.27883839 5.40522337 7.83346033
O 9.08166118 1.77109574 7.83430184
O 1.30910924 1.76341541 12.30216372
O 5.21731727 4.50492836 10.07782352
O 6.50969301 5.41294649 12.32238989
O 5.20899039 4.50048895 14.56604485
O 2.59627184 0.85594457 14.54639130
O 2.62190532 5.41197608 14.53219041
O 5.19444668 1.76187870 10.06974945
O 5.18849996 1.76483835 14.56103710
O 1.32689433 4.50103710 16.77311302
O 1.32652220 4.50769508 12.29117652
O 2.62871268 5.41718014 10.05026899
O 2.60290178 0.84648789 10.05764440
O 6.49206118 0.86134101 12.31622705
O 6.49010659 0.86218652 16.79605419
O 6.49340363 5.42517328 16.79932744
O 1.30576372 1.75874222 16.78888123
O 9.08847434 9.07296545 12.31869341
O 12.96584172 11.80299208 10.06790248
O 14.26548076 12.70576685 12.30665090
O 12.97070722 11.80801650 14.54947420
O 10.37648947 8.16294365 14.56086439
O 10.38063973 12.70936601 14.55944325
O 12.96695645 9.06110010 10.07041712
O 12.96041206 9.07096197 14.54668690
O 9.07831779 11.80859620 16.79422964
O 9.08549327 11.81211873 12.31347606
O 10.37698788 12.70962132 10.06313897
O 10.38014161 8.14722532 10.07881137
O 14.25796258 8.14457602 12.31584388
O 14.25548951 8.14933725 16.78794767
O 14.26937945 12.71387024 16.78963356
O 9.09032781 9.06476997 16.80984538
O 1.31722639 9.05447773 12.29522738
O 5.21520820 11.80270439 10.06912412
O 6.49674224 12.72107971 12.31494986
O 5.19791887 11.81396616 14.55171783
O 2.61356717 8.15399197 14.54089188
O 2.60012030 12.71022067 14.53225025
O 5.21199728 9.05764647 10.06229539
O 5.20054793 9.07548329 14.55730315
O 1.31447118 11.79843100 16.77968362
O 1.32578679 11.79855906 12.28446474
O 2.61934062 12.70594428 10.05439712
O 2.61953052 8.15282211 10.04897616
O 6.49737632 8.15815768 12.31190819
O 6.50218899 8.16591546 16.78865780
O 6.50050260 12.72218428 16.80257622
O 1.30868985 9.05658456 16.78015054
H 8.17831351 1.44056586 12.33674500
H 9.51110617 1.43256391 13.12215546
H 13.40533341 4.82235340 10.86470356
H 12.06800171 4.82656881 10.08827133
H 14.24629960 6.36563234 12.33551115
H 13.80831845 5.09706405 13.10227072
H 12.05375689 4.79928183 14.56164061
H 12.93623288 3.52991256 14.55818886
H 10.38723237 14.49156753 14.56815899
H 11.27919351 1.14960982 14.56348202
H 9.93130596 5.12207012 13.76265755
H 10.37207878 6.38462175 14.53935285
H 12.97985749 2.72146203 10.05156320
H 13.42164505 1.46054182 9.27418601
H 13.41599873 1.42695696 13.78003170
H 13.42018402 1.42308539 15.32657639
H 8.18145622 4.84125884 16.78175335
H 9.51713112 4.84996106 16.00382670
H 9.55220503 4.79627682 11.51732107
H 9.10876181 3.53936980 12.30224942
H 9.92858200 5.11861137 9.27045809
H 10.37410706 6.37180192 10.05687107
H 11.27962875 1.18528971 10.09275298
H 9.94454139 1.17566675 10.87494044
H 13.81733426 1.17242007 11.51680005
H 15.15410916 1.18483663 12.29119632
H 15.16196614 1.15566591 16.79047443
H 14.27980038 14.48879671 16.78850054
H 15.17701111 5.08516156 16.76493272
H 13.83075373 5.07291037 16.00243096
H 9.08939845 2.73110773 16.78916386
H 9.53622196 1.46719846 16.02007659
H 9.51648974 8.74110003 4.14140588
H 8.18367670 8.73571278 3.35531331
H 12.05629581 12.10666685 1.08900343
H 12.94924728 10.84543577 1.08813627
H 13.81037956 12.41307469 2.53974434
H 14.26014087 13.67551473 3.31044409
H 12.08009032 12.14013542 5.55928134
H 13.41793185 12.13694336 4.78483850
H 9.92399543 8.44972056 6.38432114
H 10.38003039 7.19804489 5.60045553
H 9.91658387 12.38882788 4.80272931
H 9.92648213 12.37343406 6.34859085
H 13.41163284 8.73926223 1.88327399
H 12.06962667 8.73296361 1.11652717
H 12.05665721 8.77097397 5.57965226
H 12.95558813 10.02788707 5.58014105
H 9.55198349 12.09773937 8.60835782
H 9.10067384 10.83436093 7.84156952
H 8.17339201 12.11088380 3.33735037
H 9.06673952 10.84797726 3.33355867
H 9.90842180 12.39182583 1.86534059
H 9.91120585 12.39068892 0.31919843
H 9.93040849 8.45654798 1.89974224
H 10.37868653 7.19535722 1.12523324
H 13.83300247 8.48213493 4.13025559
H 15.17267228 8.47514988 3.35726469
H 14.26009672 7.19060964 7.80824449
H 13.80702019 8.44922660 7.03328609
H 14.25516297 13.67503963 7.80768329
H 13.81629699 12.41195907 7.03471426
H 8.18338918 8.72367111 7.85040915
H 9.52106098 8.72474131 8.62840604
H 1.33110193 10.01848650 3.34777865
H 1.78626013 8.76071248 4.12425225
H 5.67455324 12.14177116 0.32595920
H 5.66957304 12.13822819 1.87302830
H 6.48663616 13.68442431 3.35118135
H 6.04038550 12.42865981 4.13384518
H 4.30433064 12.12935016 5.60536244
H 5.64706120 12.14147128 6.37623540
H 3.53225304 8.48323378 5.59144561
H 2.19110688 8.48291324 6.36229772
H 2.15103390 12.37092857 4.80258304
H 2.14319848 12.36388372 6.34960272
H 5.20317111 10.02912051 1.07003081
H 5.65141717 8.77151783 0.29246583
H 5.66715589 8.77450569 4.77883715
H 5.22918795 10.03273296 5.56341677
H 1.76040421 12.11978225 8.60998547
H 0.41704731 12.13262465 7.84282537
H 1.75867533 12.12259118 2.53539412
H 0.41827808 12.12700983 3.30570204
H 3.52817702 12.41162227 1.08553124
H 2.62783642 13.66681779 1.07850191
H 3.50219736 8.48147669 1.09720189
H 2.16914902 8.47897886 1.87966253
H 6.03536754 8.45615917 2.53121132
H 6.48132492 7.19893140 3.31380779
H 6.48246599 7.18461420 7.79998722
H 6.04883455 8.45251990 7.02771698
H 7.42183169 12.41773483 7.81875066
H 6.53078321 13.68206844 7.82272913
H 0.41434051 8.75255635 7.81082720
H 1.30044588 10.01918737 7.81576161
H 1.33484119 2.72311279 3.34949406
H 1.76963785 1.45567791 4.12231322
H 4.29584730 4.83704690 1.11752859
H 5.63668978 4.83201346 1.89038845
H 6.07163249 5.08676034 4.13702279
H 7.40801472 5.09706256 3.35846843
H 4.29268301 4.79832445 5.57257908
H 5.17846878 3.53185066 5.57549796
H 2.59734610 14.48078151 5.58933769
H 2.15781366 1.14187528 6.36375661
H 2.16094797 5.11323974 6.35875655
H 2.61186499 6.37119946 5.58232356
H 5.20122348 2.73224475 1.07342635
H 5.64662199 1.47006594 0.29856969
H 4.29856268 1.41644743 5.55811454
H 5.63115949 1.43215134 4.77340782
H 0.43208051 4.82294812 7.84329428
H 1.78014095 4.83338859 8.60133298
H 1.75992887 4.83541378 4.11635504
H 0.42011598 4.82835098 3.34545642
H 2.15584280 5.10483705 1.86934906
H 2.59769740 6.36974264 1.09994007
H 2.16880670 1.17507999 1.88254866
H 3.50438332 1.18384371 1.10541319
H 6.05500553 1.19150732 2.53249965
H 7.39079512 1.18991657 3.31393436
H 7.39361889 1.19848146 7.81118965
H 6.06253557 1.18116822 7.02322329
H 6.02470318 5.06870807 7.05512083
H 6.04054759 5.08092044 8.60145467
H 1.34113064 2.71784190 7.82889575
H 1.76948649 1.45282437 8.60615594
H 9.55371657 1.43777128 2.57727210
H 9.54555736 1.44251926 4.12304976
H 12.98239454 3.54511655 1.07555546
H 13.43699974 4.80015918 0.29755157
H 13.80961849 5.11364775 2.54522874
H 14.25361260 6.37268307 3.32363612
H 12.99033661 3.53136992 5.56575033
H 13.43600013 4.79597734 4.79656933
H 9.92402231 1.15641456 6.38103971
H 10.36345994 14.49283799 5.60935434
H 9.96465054 5.09284012 4.78522722
H 11.29842340 5.08573902 5.56683523
H 12.06042333 1.43896875 1.07858345
H 13.39466948 1.42894060 0.29817046
H 13.40260437 1.42195947 4.78333253
H 12.06756388 1.42645120 5.56620851
H 9.53179355 4.84193278 7.02785930
H 8.18947756 4.84046804 7.79951034
H 9.55427513 4.81333718 2.54647388
H 9.10558296 3.55464830 3.32245995
H 11.29532379 5.08816754 1.07099103
H 9.95271740 5.09384357 0.30204966
H 9.91916032 1.16651269 0.31967974
H 10.36591080 14.50039443 1.08275016
H 15.16328299 1.18392970 3.31371012
H 13.82547728 1.18667848 2.53755474
H 13.82629942 1.17843109 7.02981924
H 15.16590160 1.18210859 7.80210355
H 13.80439892 5.07860814 8.60521661
H 13.81529700 5.06842097 7.05929593
H 9.09932477 2.73387302 7.84795804
H 9.53581374 1.47435385 8.63012035
H 1.32702939 2.72623583 12.31263586
H 1.76531822 1.46969208 13.09798105
H 5.67526717 4.79856327 10.87244209
H 5.21856964 3.54210710 10.09651972
H 6.07607650 5.08508829 13.11724499
H 7.41537578 5.08619506 12.34154629
H 4.29494299 4.80321847 14.54698308
H 5.18233935 3.53752139 14.56357619
H 2.16221613 1.18402920 15.34139328
H 3.50337886 1.17840058 14.57236907
H 2.61233661 6.37487939 14.51623315
H 2.16407673 5.11757013 13.73768121
H 4.28968625 1.43303881 10.04840291
H 5.62791721 1.44000109 9.27237920
H 5.66445667 1.43522111 15.33087457
H 5.65545892 1.43882426 13.78451889
H 1.79360608 4.83305127 17.54727197
H 1.79813283 4.82971619 16.00008936
H 0.42056283 4.83330093 12.27343929
H 1.76057992 4.83582322 11.49663289
H 2.65228886 6.38016276 10.04746324
H 3.54355548 5.11641913 10.06266940
H 2.59626055 14.48555120 10.07769250
H 2.14853581 1.14427115 10.85276205
H 6.47818248 14.50048622 12.29468771
H 6.03325641 1.15996898 11.52380725
H 6.51410738 14.50139167 16.80332885
H 7.40519571 1.16265814 16.80189646
H 6.02259961 5.08886846 16.02890195
H 6.02695176 5.09668838 17.57495321
H 1.32140974 2.72185310 16.80242748
H 1.76286790 1.46308051 17.58371864
H 8.17456605 8.76896724 12.31167724
H 9.05943394 10.03583688 12.31438707
H 13.43425123 12.13506480 9.29441370
H 13.44042815 12.12723486 10.84087633
H 15.18108019 12.40739998 12.29884860
H 14.28507892 13.66897960 12.30463410
H 13.43790097 12.13965014 15.32382809
H 13.44424934 12.13598660 13.77738926
H 11.28040436 8.49454595 14.53525005
H 9.93480327 8.49777208 13.77300444
H 9.94628969 12.38752564 13.76229168
H 11.28644791 12.38291030 14.53529304
H 13.42510813 8.75718753 9.27976981
H 12.98263735 10.02385913 10.04659761
H 12.98025723 10.03384061 14.57050600
H 13.41682229 8.76463592 15.33750493
H 9.09665606 10.84560699 16.78180127
H 9.54451226 12.10413101 16.00444645
H 9.51646319 12.13978582 11.51704945
H 8.18174846 12.14503213 12.29909309
H 11.29313930 12.41213376 10.06980012
H 10.39931807 13.67238668 10.06537707
H 11.28461189 8.47796810 10.09013136
H 9.94889480 8.48205522 10.87189439
H 13.78868675 8.48431154 13.08522855
H 13.79316951 8.47313992 11.53906322
H 14.24608811 7.18640410 16.80342218
H 13.79830008 8.44472979 17.58276711
H 13.83074506 12.38470242 17.58148877
H 15.17172944 12.37702103 16.81053848
H 9.56053479 8.73688029 16.03578219
H 9.56238840 8.73918838 17.58332358
H 1.75718419 8.72501028 13.08599714
H 0.41266778 8.72540192 12.32266234
H 5.22919391 10.84022055 10.04084755
H 5.67403865 12.11010724 9.28005760
H 6.02444728 12.39329266 13.08793132
H 6.03282089 12.38267995 11.54162067
H 5.17627410 10.85096124 14.55533761
H 4.28253989 12.11260628 14.55127797
H 3.51722485 8.48567577 14.56591515
H 2.17364030 8.48007528 15.33310821
H 2.58822634 13.67301995 14.55146978
H 2.14568342 12.41163393 15.32706880
H 5.64414169 8.72451163 9.26819136
H 4.30365474 8.73864314 10.03781337
H 5.67677413 8.74644671 15.32746060
H 5.66599218 8.74558455 13.78152374
H 1.32317534 10.83531790 16.79542885
H 1.77868133 12.09364786 17.57040732
H 1.77419563 12.09814963 13.08275271
H 1.32828794 10.83568739 12.30863908
H 2.18800096 12.36839152 10.84726102
H 3.52561087 12.38070283 10.07259876
H 2.14783064 8.48292975 9.27651807
H 2.14793654 8.47734605 10.82320327
H 6.04046333 8.45029179 11.51593938
H 6.49107624 7.19525150 12.29728953
H 7.42006234 8.45776436 16.80045308
H 6.51704321 7.20271427 16.79507077
H 7.40306261 12.38591321 16.77495176
H 6.05880976 12.39643549 16.01144090
H 0.40340831 8.72753100 16.79714125
H 1.73908152 8.72334321 17.57461468
