384

O 9.09378698 1.75692446 12.30229560
O 12.96981343 4.50322922 10.06054200
O 14.25553533 5.41388289 12.30843009
O 12.97189767 4.49503714 14.55016585
O 10.37529973 0.83828395 14.54693647
O 10.38739458 5.40974500 14.55734088
O 12.96238591 1.76245888 10.05280239
O 12.96609715 1.75732254 14.54458940
O 9.09676454 4.49854452 16.80021015
O 9.09322564 4.50072646 12.31177055
O 10.38166258 5.40940664 10.06207303
O 10.38179818 0.84566881 10.05211491
O 14.25071030 0.85498072 12.29594242
O 14.26453204 0.86308454 16.78984809
O 14.27319459 5.40636514 16.78778034
O 9.09581179 1.75399776 16.79463464
O 9.07888962 9.06127309 3.34279567
O 12.98249562 11.79308563 1.08932864
O 14.26732645 12.71177802 3.32452756
O 12.97782976 11.79766083 5.57117513
O 10.37765669 8.14872288 5.58405727
O 10.39315945 12.70705759 5.58363775
O 12.97147204 9.05204924 1.09758806
O 12.96632190 9.05818791 5.57391211
O 9.08317031 11.80035624 7.81346305
O 9.09396352 11.79995514 3.34103051
O 10.39238911 12.70013117 1.09817667
O 10.37844871 8.14933766 1.10236712
O 14.27479518 8.15756592 3.34161145
O 14.25910984 8.15159007 7.81734848
O 14.27162951 12.71153136 7.81278571
O 9.07969866 9.05794527 7.82676469
O 1.32729696 9.07023699 3.33619010
O 5.20992340 11.80613361 1.08942525
O 6.50025055 12.70703384 3.34007584
O 5.19962957 11.80334658 5.57881995
O 2.60752406 8.15936587 5.58678144
O 2.61402585 12.70962873 5.57363474
O 5.20836137 9.06161374 1.09533116
O 5.19523587 9.06112522 5.58955786
O 1.32655624 11.80535973 7.82538735
O 1.32679099 11.81478617 3.31785028
O 2.62578545 12.71991968 1.07266907
O 2.61802595 8.15821790 1.09647531
O 6.49345361 8.15510166 3.34836350
O 6.48453608 8.15119356 7.82958743
O 6.49151583 12.71813600 7.82243839
O 1.31426110 9.06351949 7.82671110
O 1.31643034 1.76106874 3.33301023
O 5.21301854 4.50927273 1.10012818
O 6.50153310 5.41752447 3.34177276
O 5.20054970 4.50289326 5.58477987
O 2.60999946 0.85019917 5.57062217
O 2.60696371 5.41362035 5.57847334
O 5.21079486 1.76949524 1.09895272
O 5.19308937 1.76158778 5.58885588
O 1.33084051 4.49906015 7.83100701
O 1.32207718 4.50111056 3.32419757
O 2.62104405 5.41915128 1.09964494
O 2.62151514 0.86193851 1.09398541
O 6.49029146 0.85157386 3.35516939
O 6.48559329 0.85602420 7.83231959
O 6.50368575 5.41216840 7.82535404
O 1.31136930 1.75587701 7.81355558
O 9.08008873 1.75681633 3.33307062
O 12.97890776 4.50599208 1.09341237
O 14.26793346 5.41262287 3.33442684
O 12.97972447 4.48912497 5.57517550
O 10.36572072 0.84667876 5.57525132
O 10.39574312 5.40341634 5.57739800
O 12.97351717 1.76673966 1.08732368
O 12.95594413 1.75175540 5.56852642
O 9.09040123 4.49902048 7.81344853
O 9.09618980 4.49935375 3.33437434
O 10.38653253 5.41033994 1.09942645
O 10.38488480 0.84608841 1.09777186
O 14.26424619 0.84887342 3.32977131
O 14.25310739 0.85030304 7.80861278
O 14.26702782 5.40266940 7.81695579
O 9.07096024 1.75610561 7.82369709
O 1.30455639 1.76858069 12.31001458
O 5.20998403 4.51642790 10.07353796
O 6.51101159 5.42240789 12.31508184
O 5.21126685 4.51216472 14.56199871
O 2.61005580 0.85181121 14.54179533
O 2.61648463 5.42600860 14.54846977
O 5.18786586 1.77662162 10.07274351
O 5.19717237 1.77140205 14.55480465
O 1.33429358 4.50698418 16.79169112
O 1.31379511 4.51589069 12.30509796
O 2.61608223 5.41418351 10.06769041
O 2.59678495 0.86280003 10.06545734
O 6.49309849 0.86471798 12.31073358
O 6.49864250 0.86616423 16.79867691
O 6.51285550 5.41079681 16.79850329
O 1.32329688 1.76686209 16.79220720
O 9.08275611 9.05767275 12.31525841
O 12.96212352 11.80213410 10.04647800
O 14.25952819 12.71156678 12.29502849
O 12.97568245 11.80381957 14.54122750
O 10.37641698 8.15053850 14.56434827
O 10.38680505 12.70330152 14.54962215
O 12.95880269 9.06192574 10.06004626
O 12.95529347 9.06085761 14.55094751
O 9.09679761 11.81078586 16.79886342
O 9.09389874 11.79991183 12.30987650
O 10.37395914 12.70360900 10.05570971
O 10.36929041 8.14570073 10.06600675
O 14.24679797 8.15821768 12.31010987
O 14.26058579 8.14717987 16.79617172
O 14.26809332 12.71898285 16.78443556
O 9.09459167 9.06691721 16.80679576
O 1.30403441 9.06544581 12.31744965
O 5.20448236 11.80732383 10.07123601
O 6.50747699 12.72033090 12.30693709
O 5.20597220 11.82230398 14.55540200
O 2.61990848 8.16568247 14.55613663
O 2.61724338 12.71142510 14.54055979
O 5.18689659 9.06247784 10.07471044
O 5.21039061 9.08107306 14.56529888
O 1.32406447 11.80118113 16.78582378
O 1.32328931 11.81195427 12.30027565
O 2.61546485 12.72712453 10.06690098
O 2.59883478 8.15758851 10.07492951
O 6.49349860 8.16215669 12.31301057
O 6.50661839 8.15226271 16.79331438
O 6.51033873 12.72816737 16.79577391
O 1.31968958 9.06070962 16.80141730
H 8.18590533 1.43642904 12.32007957
H 9.52422866 1.41864721 13.09471425
H 12.06450892 4.83159104 10.08003960
H 13.40301843 4.83674983 10.85349698
H 15.17112954 5.11449035 12.30234597
H 14.27869992 6.37660292 12.30836550
H 12.06875447 4.82905424 14.53221994
H 13.40842508 4.82712180 13.75831542
H 11.28859693 1.14395697 14.54576805
H 10.40618847 14.47745852 14.54434066
H 10.37481199 6.37258713 14.57830930
H 9.93059059 5.10892578 15.35004718
H 13.41973012 1.46185980 10.84560219
H 12.97470527 2.72548748 10.07556371
H 12.97261795 2.72051876 14.55897108
H 13.42472810 1.46598596 15.33991520
H 9.07863877 3.53550239 16.79551173
H 8.17905039 4.79154837 16.79692051
H 9.10732183 3.53778433 12.32780798
H 9.55139894 4.79889842 13.10462035
H 10.36379071 6.37238523 10.08090286
H 9.92471644 5.10736388 10.85410032
H 9.94842694 1.17465343 10.84674620
H 11.28658678 1.17593524 10.07251707
H 13.81643299 1.17841102 13.09266238
H 15.15514656 1.18548163 12.32021763
H 15.17030289 1.18977589 16.81220677
H 13.83134111 1.19512128 17.58372931
H 13.80646405 5.07940369 17.56404654
H 13.80233004 5.07178620 16.01717554
H 9.52483747 1.41794062 16.00061344
H 8.18807815 1.43237524 16.77855079
H 9.09922709 10.02397584 3.36709168
H 9.53860453 8.75423270 4.13152458
H 12.96109512 10.82998169 1.08565702
H 12.06629786 12.09008928 1.08498952
H 13.79903389 12.37939120 4.09753231
H 13.80276811 12.37421987 2.55090713
H 13.41845634 12.13144756 6.35998123
H 12.07434039 12.13074202 5.59881309
H 10.40229875 7.18589525 5.57909470
H 11.29310785 8.44805849 5.58136074
H 10.36934442 13.66987062 5.59990182
H 9.92692837 12.40667294 6.37141942
H 13.40331044 8.71907486 0.30363672
H 12.06678604 8.72226957 1.08115560
H 12.97775336 10.02112933 5.59673955
H 13.42467763 8.75673158 6.36564040
H 9.51566255 12.12536734 8.61053575
H 8.17931501 12.13211224 7.83250067
H 9.56719956 12.12584252 2.56802322
H 9.56092239 12.13190559 4.11513872
H 10.38334002 13.66297796 1.07875692
H 9.93383971 12.40585017 0.30351590
H 9.91236684 8.48804096 0.33045527
H 9.90990620 8.47652214 1.87745397
H 13.80124153 8.47723906 2.56623310
H 13.80336387 8.49017347 4.11300387
H 15.17499261 8.44961441 7.81980648
H 14.28115409 7.18887828 7.82041928
H 13.80544960 12.41243553 8.60078644
H 14.25233771 13.67458818 7.82972908
H 9.08678092 10.02077799 7.80419878
H 9.53711181 8.75778951 7.03424882
H 0.41106427 8.77253743 3.33994860
H 1.30439776 10.03320734 3.33092396
H 4.29417063 12.10524386 1.08280331
H 5.18505794 10.84333380 1.08662430
H 7.40601850 12.38096755 3.31868415
H 6.06614637 12.37988927 2.54505258
H 5.66154043 12.09692507 4.78620960
H 5.21454474 10.84030937 5.56675521
H 2.17500846 8.49538609 4.79454084
H 3.51476704 8.48231465 5.56740981
H 3.51699556 12.37419963 5.58793160
H 2.18328809 12.38295403 6.37043303
H 4.30423620 8.72947356 1.07941782
H 5.64122650 8.72965638 0.30201905
H 5.66328870 8.72954791 6.36341240
H 5.66616773 8.73133368 4.81687416
H 1.76004136 12.13792640 8.61845846
H 0.42322357 12.13899391 7.84100651
H 1.76006527 12.13953915 4.11420121
H 0.42189898 12.14366055 3.33926122
H 2.15306537 12.38847473 0.30159220
H 2.15412762 12.39746594 1.84795486
H 2.60731911 7.19526977 1.12153658
H 2.16241573 8.46199856 1.88903313
H 6.05910177 8.47918948 2.55237406
H 7.39682490 8.48878403 3.32921843
H 6.51293886 7.18826131 7.82885176
H 7.39869378 8.45408803 7.82967710
H 6.47627841 13.68111674 7.80892109
H 6.03633850 12.42139111 7.02741425
H 1.77426858 8.77179325 7.03218901
H 1.32427102 10.02659497 7.81345453
H 1.78891284 1.43228989 4.10545933
H 1.78985863 1.43558350 2.55975964
H 4.30819081 4.83824569 1.12070808
H 5.64807151 4.84511199 1.89135449
H 6.04384081 5.11574944 4.13336638
H 6.49179518 6.38041558 3.36453803
H 5.17572707 3.54008567 5.58379202
H 4.28601220 4.80389720 5.58114143
H 3.52499586 1.15136123 5.58252158
H 2.63653251 14.48931732 5.57534980
H 2.59898666 6.37658048 5.56052020
H 2.15413833 5.11742035 4.78201989
H 5.21933887 2.73245934 1.12462928
H 5.66221154 1.46682823 1.89375717
H 5.66672991 1.43003663 4.81827167
H 5.66309116 1.43924267 6.36536995
H 1.77399338 4.80420595 7.03208397
H 1.33598111 3.53637157 7.80126697
H 0.40631190 4.79900551 3.33011434
H 1.30188186 3.53807962 3.33065971
H 2.14792362 5.07813670 1.86648627
H 2.15708110 5.09493118 0.32055986
H 3.53734540 1.15940464 1.09502556
H 2.64147056 14.50131586 1.07951956
H 6.51225841 14.49086568 3.34664731
H 7.40624947 1.14918130 3.34207026
H 6.04569645 1.19041639 8.62104519
H 7.39055715 1.18525500 7.85646491
H 7.40735158 5.08046605 7.79665302
H 6.05989136 5.08057286 7.03753742
H 0.40392037 1.43450624 7.78714313
H 1.74902002 1.42261078 7.02306935
H 9.09446773 2.71980214 3.31083480
H 9.54008119 1.45609075 2.54201080
H 13.41396062 4.83982646 1.88539185
H 12.07493897 4.83765820 1.11368540
H 13.81464639 5.11072833 4.12882140
H 14.26022564 6.37553242 3.35784423
H 12.98467227 3.52594284 5.58889473
H 13.43627349 4.78152442 6.37122698
H 9.89977335 1.17889136 6.34971621
H 9.89518148 1.17758685 4.80269189
H 11.29808331 5.06692715 5.55808764
H 9.95959781 5.07715502 4.78311757
H 13.42782381 1.46264430 1.88026142
H 12.98136143 2.72964429 1.11522799
H 13.39572525 1.41966950 4.77878533
H 12.04989524 1.42633524 5.54496049
H 9.56661058 4.82300392 7.04138541
H 9.55431001 4.83336572 8.58823078
H 8.19282092 4.83222673 3.32037805
H 9.52732510 4.83318105 2.53999843
H 10.37194979 6.37322498 1.07733072
H 9.93102018 5.10667101 0.30686745
H 11.28833419 1.17853368 1.07589027
H 9.95006195 1.17030111 0.30176187
H 15.18069102 1.14537207 3.33216699
H 14.28499756 14.48795320 3.32353270
H 13.78988989 1.18632655 8.58335549
H 13.77651034 1.17262507 7.03634628
H 13.83110186 5.08085491 8.61321916
H 15.17131376 5.07284922 7.84123457
H 9.53992800 1.45385119 8.60907993
H 9.09381318 2.71880279 7.84109467
H 1.77678635 1.43485247 13.08018581
H 1.76898257 1.43754897 11.53377720
H 5.68005133 4.84322601 10.84775964
H 5.68312279 4.84086971 9.30008201
H 7.41418970 5.08840567 12.33756956
H 6.07262211 5.09197044 13.10617135
H 4.29798048 4.81708735 14.54974818
H 5.18166643 3.54937590 14.55476332
H 2.15784732 1.15327433 15.33679194
H 2.59947702 14.49104885 14.56477130
H 2.61020942 6.38904165 14.53341983
H 2.15946810 5.13095762 13.75397323
H 4.27093714 1.48264089 10.06820131
H 5.17248066 2.73964842 10.07591511
H 5.63416717 1.44525651 13.76089833
H 4.29499607 1.43503309 14.53187888
H 0.42786733 4.83158360 16.77061124
H 1.76735179 4.84239757 15.99941685
H 1.32436254 3.55287858 12.29297561
H 1.77647425 4.80672928 11.51180613
H 3.52546209 5.09753489 10.05032109
H 2.18817058 5.07677266 9.27320553
H 2.13845877 1.15241370 9.26949566
H 2.59688264 14.50171921 10.04877932
H 6.03208680 1.16747821 11.52101017
H 6.48527079 14.50418700 12.28463964
H 6.02331766 1.19276097 16.02750747
H 6.03698759 1.20144977 17.57476290
H 6.04223258 5.08732019 17.57396490
H 6.03752205 5.08372210 16.02701266
H 1.33856279 2.72993982 16.80331549
H 1.78499810 1.47290818 17.58438756
H 9.51291576 8.72977638 11.51859284
H 8.17658556 8.73121151 12.29557573
H 13.39769246 12.12964324 10.84031894
H 12.05556275 12.12706354 10.07102947
H 15.17573045 12.41485345 12.29505298
H 14.27997672 13.67452552 12.29253296
H 13.44134486 12.13769859 15.31533904
H 13.44599300 12.13536574 13.76873056
H 9.93894817 8.47356601 13.76956900
H 11.28060913 8.48263141 14.53881262
H 11.29230214 12.37540352 14.52925877
H 9.95169126 12.37099084 13.75706265
H 13.41749777 8.76074872 9.26873661
H 12.96693617 10.02480029 10.03677036
H 12.97543766 10.02381199 14.53508735
H 13.41406257 8.76327357 13.75787492
H 8.19396146 12.14557160 16.77858909
H 9.53242288 12.13359582 16.00269321
H 9.06661374 10.83698565 12.30920356
H 8.17920785 12.10176280 12.31069222
H 10.36790515 13.66662910 10.07508974
H 9.92004131 12.40564831 10.85122447
H 11.27351541 8.47661663 10.04620657
H 9.93576272 8.47803985 9.27243036
H 13.81621930 8.48441533 11.51269429
H 15.15160137 8.48777405 12.29327611
H 14.25057384 7.18423858 16.77146474
H 13.80413741 8.44948939 16.00407391
H 14.25720711 13.68169498 16.80978016
H 13.81347486 12.41501461 17.57697265
H 9.10258212 10.02983354 16.78264882
H 9.55007745 8.76765295 16.01233710
H 1.77268770 8.73260367 11.54466251
H 1.77690348 8.74141199 13.09115036
H 5.65628138 12.10819651 9.27557813
H 5.21113125 10.84457977 10.04731454
H 6.03861046 12.38617305 11.53476140
H 6.03466319 12.39822798 13.08151261
H 5.22629332 10.85957735 14.57806766
H 5.66847779 12.12725864 15.34329642
H 2.18191258 8.48919879 15.35054578
H 3.52307138 8.49879222 14.57942612
H 3.52558390 12.39141932 14.56844597
H 2.18091301 12.37676167 15.33117603
H 5.62175386 8.72769504 9.28333658
H 4.27972750 8.73951076 10.05135397
H 5.67238775 8.75096267 13.78753052
H 5.68310820 8.74117482 15.33270965
H 1.29579645 10.83833557 16.78981469
H 0.41062669 12.10612668 16.78492948
H 1.32635414 10.84915752 12.32310955
H 1.78217484 12.10789264 13.09412234
H 3.51966199 12.39626568 10.08247671
H 2.18323883 12.39326935 10.86043153
H 2.14216346 8.45917840 9.28213859
H 2.58861350 7.19478710 10.05173602
H 6.48573581 7.19908350 12.29692582
H 6.02755760 8.45700257 11.52333618
H 7.42087187 8.45469521 16.80003476
H 6.53170483 7.18937917 16.79697839
H 6.49194486 13.69095317 16.81887013
H 6.04913028 12.42328434 17.58432704
H 1.75108876 8.73302944 17.59791886
H 0.41756853 8.72394269 16.81481064
