384

O 9.07805937 1.75265257 12.30918996
O 12.98102740 4.49941591 10.06949444
O 14.26146402 5.41360980 12.31381492
O 12.97847219 4.49716036 14.55745369
O 10.37103068 0.84051262 14.55359317
O 10.38859649 5.40400328 14.55845752
O 12.96439899 1.75918621 10.07253740
O 12.95261326 1.76064529 14.55982313
O 9.09226818 4.50064416 16.79971546
O 9.09462820 4.49318079 12.31253510
O 10.39072940 5.39260741 10.06248294
O 10.38229310 0.84505799 10.06287270
O 14.25673757 0.85536629 12.31945410
O 14.25679244 0.86107942 16.80109585
O 14.26736083 5.41723508 16.80216585
O 9.08391270 1.75627535 16.79276708
O 9.09073209 9.05136476 3.34101559
O 12.97394183 11.80639878 1.08731590
O 14.26750237 12.71453419 3.33031837
O 12.97423687 11.79700112 5.57572438
O 10.38067380 8.13897644 5.58770695
O 10.37816653 12.70226085 5.56396745
O 12.97082333 9.06654491 1.09856050
O 12.96414311 9.05540676 5.59407479
O 9.09318275 11.79932197 7.81333697
O 9.08729075 11.79118396 3.31718039
O 10.38432708 12.70629017 1.07739419
O 10.38670624 8.14847532 1.09393815
O 14.25953986 8.15586402 3.34744994
O 14.26076913 8.15142190 7.84017515
O 14.26858541 12.71276553 7.81655006
O 9.09390322 9.05269166 7.83539642
O 1.31423664 9.06860039 3.34249465
O 5.21027736 11.81358557 1.07619339
O 6.49696059 12.71168025 3.31162758
O 5.21589254 11.81182251 5.55786675
O 2.61516094 8.15791058 5.58597366
O 2.62458141 12.71344592 5.57053583
O 5.20393182 9.07450279 1.09130617
O 5.20404225 9.07278912 5.57749638
O 1.32809866 11.80634966 7.81565008
O 1.32509406 11.80868352 3.33407638
O 2.61683735 12.72282983 1.09179012
O 2.61668638 8.16650194 1.10060883
O 6.50039768 8.15758050 3.33277189
O 6.49877588 8.15673473 7.82235906
O 6.49789112 12.71421507 7.80137370
O 1.31836536 9.06439730 7.83355297
O 1.31882334 1.76750294 3.33921598
O 5.20063323 4.50960061 1.09570194
O 6.50155188 5.41471908 3.34024387
O 5.20998222 4.50174754 5.58269915
O 2.61380108 0.85151555 5.57780697
O 2.62267204 5.41712550 5.58827627
O 5.19681623 1.76729644 1.08059531
O 5.20753984 1.75960143 5.56397351
O 1.33420567 4.50632134 7.83588659
O 1.32337932 4.51456013 3.34430616
O 2.61011599 5.42320725 1.09986099
O 2.61131962 0.85769707 1.09434844
O 6.50562567 0.85442523 3.31510704
O 6.49862695 0.85250069 7.81144431
O 6.50370884 5.41422136 7.81964813
O 1.31906117 1.76351921 7.81663662
O 9.09139481 1.75941773 3.33683186
O 12.97495850 4.50619388 1.09979360
O 14.27152102 5.41387467 3.34807130
O 12.97943522 4.50353602 5.59275197
O 10.38007080 0.84389710 5.57267700
O 10.38827260 5.40020861 5.58722241
O 12.95412448 1.76601794 1.09870586
O 12.95823720 1.76405608 5.58408941
O 9.08939360 4.49393997 7.82591873
O 9.09746868 4.49921849 3.33685420
O 10.38428613 5.40666102 1.09459325
O 10.36906320 0.84724032 1.09102184
O 14.25746468 0.85752030 3.33536228
O 14.26027590 0.84945235 7.82181904
O 14.27598467 5.41347261 7.82749761
O 9.08987552 1.75052262 7.82178551
O 1.30750024 1.76424135 12.31071087
O 5.21280922 4.51247451 10.06920254
O 6.50741942 5.41483538 12.31408787
O 5.19965961 4.50943003 14.55252083
O 2.60151394 0.86484447 14.56041275
O 2.61501343 5.41569073 14.55379411
O 5.20273707 1.77054241 10.04905803
O 5.19004628 1.76492735 14.54447269
O 1.31727489 4.51493846 16.79637422
O 1.31815141 4.50132387 12.30868394
O 2.62078255 5.41557776 10.08355660
O 2.61255171 0.86683570 10.06453253
O 6.48258121 0.85025846 12.29899628
O 6.49104116 0.85725660 16.77933989
O 6.49998800 5.41794739 16.80106723
O 1.30929852 1.76901461 16.80375644
O 9.08206316 9.06353132 12.31859029
O 12.97501166 11.79828701 10.06176608
O 14.26427159 12.71304191 12.30632005
O 12.97790693 11.79419829 14.54769934
O 10.37530915 8.14498687 14.55995393
O 10.38793049 12.70264631 14.54029850
O 12.95981252 9.06239093 10.07838877
O 12.96892497 9.05702855 14.56404258
O 9.08798555 11.79828705 16.77975941
O 9.09058602 11.80375439 12.30081288
O 10.39215863 12.70608474 10.05180113
O 10.37638824 8.13989635 10.08339987
O 14.26234630 8.15682707 12.31724895
O 14.25916366 8.15534522 16.80141188
O 14.26618294 12.71869785 16.78743039
O 9.07949111 9.05916425 16.79459534
O 1.31539680 9.07223933 12.30943474
O 5.21065372 11.81240539 10.05167693
O 6.49797884 12.71101925 12.29381654
O 5.20422551 11.80887073 14.53659356
O 2.59882136 8.16182961 14.55808797
O 2.61724207 12.72389312 14.54801416
O 5.19248908 9.06314029 10.06019488
O 5.19554616 9.06673304 14.54926452
O 1.32254341 11.81415416 16.79826814
O 1.32386680 11.81599306 12.29810682
O 2.62313271 12.72691111 10.06178170
O 2.60846250 8.15190263 10.07090335
O 6.49460172 8.15706221 12.30503794
O 6.48395416 8.16128307 16.79011106
O 6.50223334 12.71382157 16.77289562
O 1.31793630 9.07185696 16.79950461
H 9.50673560 1.42165733 13.10544589
H 8.17281493 1.42458627 12.32099580
H 12.07401397 4.82286190 10.04172997
H 13.41913957 4.82820653 9.27739507
H 13.80712555 5.12027980 11.51684103
H 14.25616156 6.37666090 12.29812808
H 12.07433747 4.82911811 14.54025036
H 13.40965630 4.82844578 13.76239291
H 11.27246689 1.17999282 14.57114562
H 9.93785897 1.17011742 15.34847098
H 9.93383675 5.10130850 13.76531132
H 10.36993432 6.36700863 14.53953451
H 13.42184889 1.46425925 10.86677757
H 12.98236435 2.72219327 10.08310991
H 13.41547673 1.46620756 15.35133424
H 12.96974516 2.72386283 14.57125606
H 9.52573815 4.82760377 16.00402200
H 8.18727861 4.82912149 16.77998625
H 9.55215916 4.78183898 11.51615344
H 9.09595712 3.53000186 12.29996887
H 9.92863887 5.09971306 9.26960553
H 10.37491316 6.35564385 10.05156188
H 11.28596791 1.17801100 10.08869225
H 9.94386028 1.16455453 10.85823869
H 13.79446782 1.14884141 13.11162659
H 14.24436270 14.49448163 12.32881208
H 15.17372300 1.15585307 16.80236340
H 14.27548617 14.50030383 16.79539870
H 15.17315420 5.08941213 16.78182468
H 13.83481589 5.08754518 16.00749967
H 9.53711376 1.45972068 17.58931864
H 9.09475574 2.71913027 16.80980244
H 9.55611760 8.72118431 4.11669900
H 9.56433661 8.72579144 2.56836634
H 12.06848330 12.13453325 1.10931358
H 13.40909186 12.14138642 1.87872708
H 13.80895022 12.41178674 4.12111095
H 14.25500873 13.67745026 3.35313102
H 12.05937694 12.09760635 5.56977979
H 12.94773508 10.83405922 5.57863713
H 10.37262672 7.17617661 5.60996983
H 9.92287473 8.43986830 6.37977834
H 10.37305604 13.66519043 5.54591206
H 9.92314310 12.40589874 4.76881052
H 13.42471234 8.76730246 1.89337254
H 12.98159611 10.02961769 1.11785380
H 13.40156075 8.72601682 4.80175250
H 12.06146889 8.72011727 5.57379661
H 8.18912684 12.13011725 7.79379292
H 9.52349776 12.12285832 7.01448008
H 8.17060354 12.08492916 3.31713096
H 9.07201265 10.82809041 3.32596666
H 9.92353947 12.39844307 1.86517768
H 10.36768342 13.66898394 1.10445545
H 9.94553528 8.48177572 0.30564376
H 11.28973676 8.48272791 1.07190035
H 14.28503050 7.19278312 3.34329522
H 15.17513642 8.45459853 3.34434268
H 13.78973759 8.48240954 8.61221631
H 13.79017081 8.47515501 7.06479937
H 15.17436097 12.38621181 7.79942503
H 13.83511358 12.37842819 7.02428534
H 9.07178039 10.01542099 7.82689111
H 8.17776379 8.75529144 7.82863793
H 1.78734725 8.74476781 2.56850959
H 1.78697608 8.74456399 4.11622283
H 5.64231864 12.14895825 1.86960868
H 4.30413300 12.13906898 1.09620712
H 6.49749343 13.67477115 3.33177370
H 6.04401500 12.41916111 4.11012427
H 5.64759866 12.14162400 6.35355183
H 4.30883622 12.13503322 5.57919843
H 2.17815282 8.48355719 6.37988498
H 3.51730306 8.49426568 5.60419068
H 2.15408370 12.38225717 4.79788556
H 2.15747437 12.38058267 6.34415452
H 5.66273405 8.77458761 1.88310014
H 5.21565649 10.03764337 1.10992675
H 5.66158109 8.77148617 4.78562004
H 5.21763994 10.03571471 5.55504487
H 1.33599925 10.84378864 7.84951715
H 1.78395748 12.11510511 8.60564041
H 1.30188797 10.84578413 3.33437810
H 0.41039792 12.10982433 3.33516572
H 2.14592317 12.39310210 0.31854440
H 2.14905832 12.38868070 1.86437217
H 3.52048267 8.49867587 1.07973817
H 2.18036899 8.49583942 0.30768417
H 6.51240465 7.19439368 3.33557268
H 7.41999221 8.44381147 3.33504012
H 6.04271791 8.45976247 7.03016822
H 6.48362180 7.19384538 7.80008434
H 6.48942436 13.67715530 7.82639779
H 6.04829550 12.41281391 8.59804742
H 0.41097861 8.74257967 7.85410574
H 1.75167932 8.72628145 8.62470176
H 0.41102644 1.44692255 3.31535666
H 1.75320027 1.43530983 2.54642745
H 5.17786252 3.54674684 1.09132928
H 4.28594999 4.81065745 1.09472373
H 6.02940544 5.08372905 2.56891558
H 6.03431121 5.08248072 4.11432627
H 5.18372658 3.53884208 5.58059514
H 4.29586336 4.80544428 5.58398781
H 2.15486264 1.15151558 4.78570801
H 2.60402188 14.49054425 5.55486552
H 2.16401972 5.12386240 4.79411660
H 2.61296325 6.38022948 5.57507879
H 5.66364683 1.43866664 0.30489811
H 5.67371406 1.44106263 1.85110566
H 5.64212618 1.43246493 6.35869167
H 4.30488782 1.42450072 5.58222968
H 1.78756281 4.80881353 7.04186878
H 1.33997325 3.54360518 7.80781632
H 1.33715964 3.55182168 3.32491661
H 1.77688988 4.81575962 2.54963767
H 2.15500099 5.12831825 0.30415036
H 2.60371891 6.38632436 1.08186097
H 3.52764603 1.15436605 1.09334605
H 2.63222879 14.49658978 1.09491049
H 7.40971206 1.18569204 3.34290021
H 6.06633921 1.18243793 4.10677907
H 6.06212304 1.19144575 8.60023326
H 7.40547162 1.17647641 7.83485028
H 6.03645723 5.09050924 8.59725756
H 6.03211729 5.07542670 7.05107640
H 1.75430262 1.42906483 7.02495444
H 0.41466292 1.43358364 7.79710397
H 9.10251638 2.72242138 3.35259567
H 9.54794737 1.46182700 4.13124352
H 12.06971099 4.83455859 1.07648824
H 13.41094297 4.83654627 0.30710941
H 15.17538488 5.08116307 3.32549600
H 13.83504087 5.08592920 2.55485932
H 13.44848206 4.83880222 6.36466963
H 13.44986012 4.83090579 4.81874580
H 9.94490714 1.16689784 6.36882703
H 11.28369317 1.17756981 5.59691756
H 11.29466047 5.07437566 5.57276435
H 9.95911778 5.07353852 4.78968699
H 12.96850614 2.72882433 1.07417079
H 13.41313017 1.46282010 0.30806154
H 13.41849411 1.45840398 6.37296662
H 12.98085892 2.72689581 5.60668911
H 8.18505151 4.82465400 7.80393504
H 9.52604087 4.81762708 7.03099973
H 8.19240060 4.82757748 3.32227607
H 9.52714948 4.83243728 2.54157384
H 10.37602533 6.36965238 1.07205240
H 9.92841949 5.10718334 0.30032234
H 9.93839283 1.17668880 1.88715288
H 11.27389778 1.17718444 1.10877691
H 13.79165210 1.18844590 4.11026136
H 13.78378196 1.18691050 2.56397984
H 13.80523174 1.14320540 8.61772273
H 14.25196696 14.48843937 7.83587996
H 14.29389228 6.37656013 7.83576524
H 15.19205512 5.11641700 7.83025544
H 9.09885863 2.71343431 7.83868129
H 9.54836738 1.45481572 8.61559437
H 0.40449602 1.43011811 12.33736369
H 1.74715877 1.43782026 13.10309787
H 5.65323173 4.84177388 10.86000287
H 4.30792586 4.84068037 10.09729592
H 6.53041034 6.37774980 12.31691873
H 7.42213280 5.11373382 12.31338253
H 5.21134302 3.54668653 14.53023387
H 5.66870282 4.81056974 13.76700533
H 3.51673066 1.16571152 14.55596361
H 2.62877530 14.50413153 14.55628308
H 2.17847281 5.08179340 13.76316569
H 3.52196306 5.09135636 14.52854217
H 5.18634924 2.73376694 10.05856257
H 4.28458397 1.47949577 10.05355377
H 5.66654755 1.43715427 15.31491861
H 5.65274974 1.43139877 13.76856778
H 1.32920601 3.55185489 16.78325609
H 1.78116423 4.80877519 16.00489716
H 1.29014009 3.53830714 12.31487872
H 0.40434468 4.80529026 12.31336964
H 2.14479307 5.08103445 10.85147717
H 2.16121080 5.08317077 9.30518789
H 2.14028662 1.19121726 9.29044283
H 2.13866219 1.18878250 10.83853326
H 6.02854829 1.15365152 11.50577125
H 6.47443674 14.48974034 12.27387198
H 6.51555685 14.49652382 16.77773538
H 7.40624797 1.15751651 16.78684399
H 6.02988904 5.08787405 16.02824682
H 6.03018563 5.08640330 17.57388582
H 1.77871924 1.43962725 16.02963837
H 1.78323544 1.44024644 17.57529819
H 9.54087662 8.75693319 11.52887051
H 9.10120405 10.02625311 12.29200509
H 13.41102229 12.12219643 9.26677875
H 12.07067535 12.12987169 10.03839337
H 13.83009958 12.38578195 11.51149951
H 15.17215460 12.39237093 12.28148279
H 13.43652637 12.08626071 13.75283307
H 12.98438222 10.83088154 14.53494260
H 9.91246440 8.48102225 13.78506250
H 9.89996725 8.47371382 15.33062466
H 10.40825604 13.66578710 14.54797651
H 11.30341057 12.40334205 14.54133729
H 13.41941146 8.76797969 10.87191521
H 12.97297400 10.02553865 10.09234151
H 12.06362809 8.72927713 14.57979600
H 13.39953068 8.72604156 15.35978296
H 9.55719892 12.13054691 17.55247898
H 9.56039431 12.12329924 16.00574520
H 9.55624973 12.13133333 11.52423172
H 9.56715261 12.13340787 13.07037799
H 9.93101138 12.40902210 9.26007638
H 10.37764805 13.66894876 10.03641323
H 9.94218462 8.47298130 9.29079443
H 11.28112581 8.46996787 10.06412798
H 15.16506624 8.49205199 12.33272814
H 13.82994310 8.47668869 13.11608315
H 13.80797930 8.45582162 17.59753510
H 14.25212143 7.19246495 16.82250067
H 13.79579422 12.39038241 17.56095842
H 13.80085607 12.38406111 16.01346677
H 9.06002810 10.02207349 16.78954955
H 8.16342627 8.76195363 16.79945534
H 1.77477388 8.76779813 11.51949706
H 1.33195846 10.03498422 12.28554769
H 5.67157797 12.10276116 10.84627278
H 5.21384939 10.84945130 10.06852665
H 7.40476176 12.38751326 12.31686098
H 6.06295201 12.38111872 13.08748682
H 5.20913877 10.84579797 14.55968949
H 5.66351845 12.10709283 15.32922196
H 2.15073697 8.46390792 13.76071053
H 2.59308196 7.19919477 14.53339201
H 3.52070333 12.39086037 14.56799354
H 2.18113286 12.39369821 15.34052229
H 5.66318009 8.73252466 9.28768339
H 5.66375198 8.73727023 10.83420511
H 5.62527842 8.73346742 15.34442392
H 4.28968802 8.74046472 14.56636450
H 0.40692009 12.11328251 16.79066312
H 1.29762472 10.85121261 16.79412986
H 1.79651748 12.15233036 11.52916429
H 1.78969357 12.14278683 13.07500642
H 2.64045733 13.68985182 10.05818183
H 3.53927480 12.43018684 10.05864323
H 3.52493766 8.44837848 10.06518494
H 2.62932170 7.18872492 10.07609534
H 6.05545362 8.48211287 13.09804623
H 7.39598865 8.49575444 12.32686443
H 6.47629439 7.19836808 16.81314617
H 6.03143310 8.46228068 17.58538590
H 6.06812624 12.39016243 17.56948027
H 7.40686116 12.38409066 16.79372543
H 0.41423401 8.73945943 16.78709921
H 1.74524908 8.74092174 16.00187359
