384

O 9.10380374 1.75190623 12.31440708
O 12.97996256 4.47714165 10.05682749
O 14.24087723 5.42599689 12.30234516
O 12.97043710 4.50840623 14.54820457
O 10.39283501 0.86841297 14.56659696
O 10.38187420 5.42765133 14.55958347
O 12.97291723 1.73548919 10.04127313
O 12.98557515 1.77174864 14.55503949
O 9.08606495 4.51139781 16.79992422
O 9.10524491 4.49694518 12.32088805
O 10.39533310 5.39531388 10.06356048
O 10.37801964 0.84939550 10.05893712
O 14.26705221 0.88903499 12.30547132
O 14.26769610 0.85888864 16.78347102
O 14.26010210 5.40464041 16.80678109
O 9.10003923 1.75899806 16.81437279
O 9.06939861 9.07122569 3.33221658
O 12.98713207 11.80868219 1.09099244
O 14.27655524 12.70512486 3.33761933
O 13.00892979 11.79135000 5.58489666
O 10.36417284 8.16349509 5.56869067
O 10.41956785 12.71405050 5.55836739
O 12.95864585 9.06905780 1.12178664
O 12.95892564 9.05587416 5.58198802
O 9.08717751 11.80089645 7.78834501
O 9.09273702 11.80903048 3.34209968
O 10.38949057 12.70036408 1.09478534
O 10.37045390 8.17100097 1.09310439
O 14.27587179 8.14910858 3.35274707
O 14.25022800 8.14099258 7.82509206
O 14.26453540 12.69428747 7.84918261
O 9.06051181 9.06384077 7.81457317
O 1.33077434 9.06668400 3.32941668
O 5.21656006 11.79057199 1.07763248
O 6.49164573 12.68660019 3.32842740
O 5.19311291 11.80832616 5.58622280
O 2.59524507 8.14861022 5.58451051
O 2.61602195 12.73936387 5.58711075
O 5.22542093 9.04284966 1.10088452
O 5.18780966 9.06746851 5.59497404
O 1.31950565 11.78282413 7.80910083
O 1.34056604 11.81508084 3.33763940
O 2.63144914 12.72147860 1.08809955
O 2.63135023 8.15715190 1.09074421
O 6.49695710 8.13919190 3.36489040
O 6.47667222 8.14035227 7.83001792
O 6.50809720 12.73758737 7.80726794
O 1.31342108 9.04259384 7.82765741
O 1.28891058 1.74517906 3.36057193
O 5.19378104 4.51018578 1.09997354
O 6.51052140 5.40194932 3.33068731
O 5.19993486 4.47424429 5.54701411
O 2.58670627 0.87742116 5.61625772
O 2.63186176 5.40894272 5.56917642
O 5.18703517 1.77256476 1.06447046
O 5.19764071 1.73677259 5.56313553
O 1.35290327 4.53457459 7.84057560
O 1.31770419 4.48582434 3.33368878
O 2.61249249 5.41622890 1.11279661
O 2.60001511 0.86473910 1.11927868
O 6.47411225 0.82977578 3.30255935
O 6.50505707 0.86990585 7.81632807
O 6.47456401 5.39477935 7.79618422
O 1.30358497 1.79436086 7.85539822
O 9.05642089 1.76020210 3.35690359
O 12.97015240 4.48149968 1.11014680
O 14.27121733 5.40477358 3.34260247
O 12.98691952 4.49402982 5.59217642
O 10.37247102 0.85091530 5.57762430
O 10.40454866 5.42664707 5.57181654
O 12.95200054 1.73739366 1.08190650
O 12.96909429 1.75232095 5.56721347
O 9.08610817 4.52793879 7.80390234
O 9.09906925 4.50285360 3.34613595
O 10.38718812 5.42131464 1.09800317
O 10.36410083 0.83264395 1.12007774
O 14.23534870 0.83842888 3.32566376
O 14.26576599 0.83366315 7.79947221
O 14.28946626 5.39891216 7.82931531
O 9.08270955 1.78343337 7.82297536
O 1.32326899 1.77229830 12.29900554
O 5.19929306 4.51557498 10.06903772
O 6.51407130 5.41751806 12.30408749
O 5.21072880 4.49084793 14.54508498
O 2.59472574 0.84932867 14.54864958
O 2.62702007 5.41304626 14.55580840
O 5.20558927 1.76933082 10.06231366
O 5.19411120 1.75246065 14.52429072
O 1.32953426 4.52588815 16.80538563
O 1.30477668 4.51016662 12.32253181
O 2.61831700 5.44660901 10.09496052
O 2.62094142 0.84425421 10.07384104
O 6.50911107 0.84547282 12.28809986
O 6.49942728 0.86749748 16.78472809
O 6.49157010 5.39336199 16.80073230
O 1.32721155 1.77927099 16.80754756
O 9.09121395 9.03839080 12.28541670
O 12.94787367 11.82356369 10.09417996
O 14.25994303 12.74864539 12.32927162
O 12.96930930 11.81391379 14.55550615
O 10.39288290 8.16549948 14.53547412
O 10.37940591 12.72395549 14.54575886
O 12.96604069 9.07169581 10.06548031
O 12.98481151 9.07727246 14.56141267
O 9.09514711 11.80240996 16.79091617
O 9.08260933 11.77598740 12.31444298
O 10.34154829 12.70946227 10.06541534
O 10.37816068 8.13513454 10.03181719
O 14.25879049 8.17264240 12.31026251
O 14.25056730 8.15632322 16.82095912
O 14.27177038 12.72488505 16.78925310
O 9.08959587 9.06015789 16.77551324
O 1.32406347 9.06283431 12.33332355
O 5.21371932 11.82330217 10.03278773
O 6.50936951 12.70730960 12.28232192
O 5.21540886 11.80396187 14.52444162
O 2.62962024 8.14935848 14.57734749
O 2.61005843 12.71105154 14.53382474
O 5.18987966 9.08795380 10.05926934
O 5.21239510 9.06076031 14.55920802
O 1.32181059 11.81656367 16.79175209
O 1.31321285 11.80973627 12.29441030
O 2.61488469 12.69676028 10.04643587
O 2.61599128 8.17818259 10.08636847
O 6.48689072 8.16495377 12.29741685
O 6.50713885 8.13718909 16.79645111
O 6.50441273 12.71889991 16.78003595
O 1.31005393 9.06678602 16.80574514
H 9.11057047 2.71492750 12.33247530
H 9.55800868 1.46052756 13.11225559
H 12.98890770 3.51425055 10.03483868
H 13.44206147 4.77650224 9.26650216
H 14.23460216 6.38857377 12.27859222
H 13.79573952 5.12054813 11.50493602
H 13.40087300 4.84490470 13.75459117
H 12.06537544 4.83676457 14.53127783
H 9.96147548 1.19460576 15.36370279
H 11.29911222 1.19341600 14.58466544
H 10.37939519 6.39052427 14.57705054
H 9.92507964 5.13053683 15.35356537
H 12.06726599 1.40736585 10.03050091
H 13.40104100 1.40313408 9.24525216
H 13.43227344 1.47553640 13.75428810
H 12.99033191 2.73495083 14.53232936
H 9.07671003 3.54862499 16.80433939
H 8.16531572 4.79502202 16.80302507
H 9.53322058 4.83618554 13.11452935
H 8.20172283 4.82967323 12.33108552
H 11.29581052 5.05401914 10.07804606
H 9.96223443 5.07373233 10.86131238
H 10.34601865 14.48905712 10.07517147
H 9.93190609 1.15248689 10.85708209
H 13.83232883 1.19601251 11.50267271
H 15.17281264 1.21604206 12.27836426
H 15.17050812 1.19371525 16.77950605
H 13.84265260 1.19622523 15.98687742
H 13.79654251 5.06128226 17.57776137
H 13.79061310 5.07981109 16.03143112
H 9.51992240 1.42309776 17.61338863
H 8.19379791 1.43320499 16.81921752
H 9.08955036 10.03413495 3.31278160
H 9.52680765 8.77014236 2.53944528
H 13.45303488 12.13873683 1.86657903
H 13.45701478 12.14141877 0.31893526
H 13.84865340 12.37290079 4.13439777
H 15.18503020 12.38624898 3.35786945
H 13.45409364 12.08052696 6.38836610
H 12.99995740 10.82825501 5.60099073
H 9.89148021 8.49248410 4.79650278
H 9.89023453 8.48233407 6.34387460
H 11.33642876 12.42056572 5.56574709
H 10.43091853 13.67713259 5.56906144
H 12.98494814 10.03191008 1.13266033
H 13.42108713 8.76897622 1.91127008
H 12.05052372 8.73808061 5.55065649
H 13.40134248 8.72278165 4.79392977
H 9.56180480 12.09318561 7.00366102
H 9.08811324 10.83776482 7.77367823
H 9.55674538 12.13237266 2.56258605
H 9.57671387 12.13705333 4.10782615
H 11.29679630 12.37882043 1.07013472
H 9.95367818 12.37156221 0.30119177
H 9.94556350 8.49466961 0.29179073
H 11.27507080 8.50186296 1.08467255
H 14.30307615 7.18661601 3.34512329
H 15.18932988 8.45377914 3.34508266
H 13.77816071 8.46691491 7.05172552
H 13.78845869 8.48189669 8.59827241
H 14.25963569 13.65735437 7.84767338
H 13.79769717 12.41585140 8.64399976
H 9.50816222 8.72963885 8.59921469
H 8.15843569 8.72794302 7.84384009
H 1.34613619 10.02948444 3.31871469
H 1.79108440 8.77367399 2.53566388
H 5.22927741 10.82775540 1.09800447
H 5.66774319 12.08504976 1.87618436
H 6.05488143 12.36708781 4.12496492
H 7.40017809 12.36892164 3.35919040
H 5.63389941 12.14775449 6.37237332
H 4.29389083 12.15352570 5.60244641
H 2.14874311 8.44950370 4.78587133
H 2.60063672 7.18575723 5.55525043
H 2.15226439 12.42077702 6.36878880
H 2.59290052 13.70161535 5.62291169
H 5.64970178 8.71806135 1.90195237
H 4.31775852 8.72050174 1.11516633
H 4.27276879 8.76777792 5.58967245
H 5.16388160 10.03053488 5.59622558
H 0.40373328 12.08029961 7.82625478
H 1.29729782 10.81973291 7.80720230
H 1.80692808 12.14365027 2.56184693
H 1.80733147 12.15397944 4.10872478
H 3.53292664 12.38398124 1.06142630
H 2.18926083 12.39661913 0.29675124
H 2.16641419 8.45703712 0.30239694
H 2.60809235 7.19434625 1.07838251
H 6.06095077 8.47542425 4.15474311
H 7.39747600 8.48155102 3.37350718
H 6.46428081 7.17780519 7.79912588
H 6.02224729 8.44763137 7.03822596
H 7.42124998 12.43188653 7.79377281
H 6.53479597 13.70073927 7.81083251
H 1.74356198 8.71008243 7.03208272
H 0.40849927 8.71424592 7.81136099
H 1.71665060 1.42847465 4.16313412
H 0.38461918 1.41411760 3.37157018
H 4.29138990 4.84617895 1.13087160
H 5.64255284 4.83764116 1.88683562
H 6.52819070 6.36516952 3.34842864
H 7.42823382 5.10929875 3.33611988
H 5.66828107 4.77651991 4.76122448
H 5.21019429 3.51111963 5.52757403
H 2.16506821 1.22033062 6.41149484
H 3.49554360 1.19535100 5.61985191
H 3.53429741 5.07243890 5.53688067
H 2.18324125 5.06917024 4.78798033
H 4.26920009 1.48118341 1.08337455
H 5.17316626 2.73565008 1.08384312
H 5.65196281 1.39399501 4.78655197
H 5.67854419 1.41911274 6.33474905
H 1.81576813 4.87602202 8.61311939
H 1.82575797 4.84857825 7.06280366
H 0.40380635 4.79052422 3.34126991
H 1.28678135 3.52313209 3.34433825
H 2.13880883 5.07563700 1.87973989
H 2.15062883 5.08979767 0.33315603
H 2.13951718 1.14536848 1.91711174
H 2.60256897 14.50388128 1.12416819
H 6.01840580 1.13128651 2.50977475
H 6.47103609 14.46923744 3.27990621
H 7.40561200 1.21141076 7.84300438
H 6.06233253 1.19634517 8.60704460
H 7.38426789 5.07971337 7.77917444
H 6.04809823 5.05476952 7.00240269
H 1.76345220 1.48274753 8.64190328
H 1.32815200 2.75696476 7.87976137
H 8.14010823 1.46527873 3.33798785
H 9.04444849 2.72311361 3.35037758
H 12.94069778 3.51886120 1.10426145
H 12.05770682 4.78931386 1.10202704
H 13.80583644 5.07639975 4.11934060
H 13.79854860 5.07133943 2.57241644
H 12.98769264 3.53107416 5.60567673
H 13.45261418 4.78487225 6.38336364
H 9.91087458 1.18279107 6.35455304
H 9.89066867 1.17842571 4.81027677
H 11.31997150 5.12812368 5.58246357
H 10.41928416 6.38973053 5.56673709
H 12.04879843 1.40345184 1.06830118
H 13.38598456 1.41835207 0.28338888
H 13.39122982 1.42261946 4.76617521
H 12.06141351 1.43150766 5.55429690
H 9.55177647 4.85196475 8.58168808
H 9.56536508 4.85639319 7.03563934
H 9.56465844 4.83263062 2.57033940
H 9.57452980 4.83186555 4.11673747
H 9.92652604 5.12390074 0.30617343
H 10.37804462 6.38402323 1.07692394
H 9.91005283 1.13477380 1.91337175
H 10.35626227 14.47155759 1.13937101
H 13.78802763 1.13413667 2.52523944
H 14.23320888 14.47736791 3.30783249
H 15.16193111 1.18573584 7.79748434
H 13.83304975 1.16073792 7.00356039
H 14.28975497 6.36203846 7.83055980
H 15.21207856 5.12253323 7.83159556
H 9.10413001 2.74627852 7.83510047
H 9.54210359 1.48239602 8.61402999
H 1.77880330 1.43943517 13.07970199
H 1.79849469 1.43211012 11.53323087
H 5.62409454 4.83139966 9.26482112
H 4.29726524 4.85299760 10.06106725
H 6.49115468 6.38010591 12.28780190
H 6.05309068 5.12061247 11.51240746
H 5.22044173 3.52804973 14.51426041
H 5.67265095 4.79890974 13.75839297
H 2.14998161 1.15364021 15.34643719
H 2.58183358 14.48871781 14.57093610
H 2.18418992 5.08616890 13.76568478
H 3.52982255 5.07807964 14.52884135
H 5.67065256 1.46977607 10.85081558
H 5.20492569 2.73193609 10.08735779
H 4.28867770 1.42563022 14.50704712
H 5.63105861 1.41488034 13.73547123
H 0.42307088 4.84963037 16.77918455
H 1.76751234 4.84890183 16.01088485
H 0.38916310 4.80678667 12.32078343
H 1.28703250 3.54721933 12.31129939
H 2.15205121 5.13766349 10.87873469
H 2.60476398 6.40958724 10.12271961
H 3.53740736 1.14040901 10.06461183
H 2.63744034 14.48351144 10.05646725
H 6.53237761 14.48449585 12.28126769
H 7.42462628 1.14384602 12.30170917
H 6.03420238 1.18560644 16.00433763
H 6.02015404 1.20579574 17.54906418
H 6.01717276 5.07030995 17.57437419
H 6.02473890 5.06335720 16.02584728
H 1.77423929 1.48200672 17.60682148
H 1.34243251 2.74181886 16.82239954
H 9.51635482 8.70739420 11.48746230
H 8.18221183 8.72036756 12.27221746
H 13.38028710 12.16347446 10.88438609
H 12.03991130 12.14297948 10.10866556
H 15.17147398 12.43863243 12.31250251
H 14.29344700 13.71116660 12.32510309
H 12.06313318 12.13926984 14.53305749
H 13.40638885 12.14950361 13.76515795
H 11.29638257 8.49828837 14.52222285
H 9.96374363 8.47994523 13.73282539
H 10.37256679 13.68670670 14.56881538
H 9.92715130 12.42482964 15.34178665
H 13.42222054 8.77570645 10.86059991
H 12.96784007 10.03411490 10.09240192
H 13.42766490 8.77292985 15.36039864
H 12.99569222 10.04014404 14.58401341
H 8.18153587 12.10716752 16.78842693
H 9.06566428 10.83969284 16.78049021
H 9.54207334 12.08443872 13.10238790
H 9.10426909 10.81322071 12.33137655
H 9.87313596 12.36510199 10.83320017
H 9.88661696 12.37819447 9.28439807
H 10.41486011 7.17257237 10.04057846
H 11.28867322 8.44765533 10.04643464
H 15.16724072 8.49118709 12.33537611
H 13.82983178 8.49766380 13.10923302
H 14.23864251 7.19361104 16.83378484
H 13.79324965 8.44960725 17.61601392
H 14.25835916 13.68799506 16.76608522
H 13.80697327 12.42341009 16.00114358
H 9.52331590 8.73828513 15.97834920
H 8.18968587 8.71686138 16.76390949
H 1.79638230 8.73356912 13.10499362
H 1.79377929 8.73726499 11.55796320
H 5.68664262 12.16158779 9.26448995
H 5.68075471 12.14586210 10.81110981
H 6.06725141 12.38226188 13.07418306
H 7.40883732 12.36354771 12.31133533
H 5.66604559 12.11231467 15.31745583
H 5.22802721 10.84137554 14.55680220
H 2.15985796 8.44889886 15.36264422
H 2.61811859 7.18632488 14.59357017
H 2.17830749 12.38362807 13.73740492
H 3.51554852 12.38526874 14.51316225
H 5.64753623 8.76826721 9.27437905
H 5.21717458 10.05054890 10.02551239
H 4.30664251 8.73384529 14.58935662
H 5.65140830 8.72517254 15.34800803
H 1.75277552 12.13555582 15.99202240
H 0.41904287 12.15253759 16.77279558
H 1.32059591 10.84670452 12.28944710
H 1.77187197 12.09487663 11.49681094
H 2.17981717 12.36453700 9.25384676
H 3.52254190 12.37540402 10.02269115
H 3.51841571 8.51507315 10.05381578
H 2.17332750 8.49114874 9.29050352
H 6.02486555 8.48941645 13.07763503
H 6.01489296 8.50713280 11.53097742
H 6.49007213 7.17434025 16.81596415
H 6.05792375 8.43696793 17.59444761
H 6.49101065 13.68154892 16.79968439
H 6.04765135 12.41875153 17.57282532
H 0.39359138 8.77158802 16.81224167
H 1.29205931 10.02963024 16.79998344
