384

O 9.08594275 1.75548738 12.29372272
O 12.96951616 4.49997416 10.05884825
O 14.26630881 5.41510148 12.30415661
O 12.98154983 4.50820637 14.54545615
O 10.37372342 0.86044710 14.53948518
O 10.39062720 5.40957591 14.54584976
O 12.97173879 1.75776146 10.06074479
O 12.96743028 1.76942697 14.54128779
O 9.09066261 4.49571418 16.78325687
O 9.09657894 4.49524437 12.29971077
O 10.38455061 5.40307230 10.05377185
O 10.38366028 0.84637614 10.05457797
O 14.26254671 0.84975270 12.30855668
O 14.26593369 0.86379861 16.79032057
O 14.27583506 5.42031835 16.79183320
O 9.09013651 1.75764096 16.78585022
O 9.07849182 9.05823091 3.34221423
O 12.97852152 11.80511308 1.09164599
O 14.26456463 12.71247721 3.33925333
O 12.97181286 11.80071337 5.58266874
O 10.37241380 8.14600609 5.58520593
O 10.38092802 12.70517486 5.58783246
O 12.96251468 9.06459657 1.08674598
O 12.96075855 9.06041676 5.58083076
O 9.08608821 11.79506404 7.82857218
O 9.09529144 11.80239972 3.33934405
O 10.38791667 12.71629741 1.09573386
O 10.37508288 8.15275685 1.09370207
O 14.25398991 8.16051517 3.33596838
O 14.25958072 8.14596700 7.82587583
O 14.27668435 12.70319325 7.82233434
O 9.06764605 9.05238938 7.82472148
O 1.31161796 9.07500477 3.33870793
O 5.20275343 11.80052764 1.09122116
O 6.50057508 12.70324281 3.33468813
O 5.21154333 11.80293677 5.58122633
O 2.60813752 8.15680595 5.58049197
O 2.62292479 12.71758660 5.57716221
O 5.18671042 9.05977331 1.09930883
O 5.19405776 9.06552637 5.58579440
O 1.33380982 11.80383543 7.82466975
O 1.31978713 11.81710360 3.33030868
O 2.62311895 12.71871282 1.09883906
O 2.59843043 8.15736090 1.09967877
O 6.48433172 8.14962918 3.34348749
O 6.47822504 8.14963724 7.83267896
O 6.50152108 12.71043964 7.82634921
O 1.31716887 9.06306773 7.83145164
O 1.31436101 1.76469127 3.33478017
O 5.20772769 4.50593896 1.09395390
O 6.49495395 5.40797068 3.34306979
O 5.19796368 4.49375541 5.58259985
O 2.60859095 0.85503613 5.57921904
O 2.60717573 5.41643109 5.57787878
O 5.20208593 1.76627491 1.09103869
O 5.20129187 1.75632530 5.57866984
O 1.32877502 4.50753745 7.82109128
O 1.32077790 4.51101480 3.32734726
O 2.61610621 5.41153563 1.09092454
O 2.61034747 0.86001670 1.09289801
O 6.49873099 0.84683236 3.33137915
O 6.49339024 0.84745756 7.82098643
O 6.49995420 5.40297110 7.81971068
O 1.32663289 1.77197631 7.82071809
O 9.09294903 1.75636107 3.32380149
O 12.97690104 4.51070317 1.09049617
O 14.26746234 5.41587616 3.33432916
O 12.97449964 4.49628805 5.57466494
O 10.37094006 0.84310471 5.57575316
O 10.38663219 5.40514940 5.57755593
O 12.96965145 1.77060912 1.08909434
O 12.96172501 1.75411029 5.57980610
O 9.08891933 4.49387261 7.81020705
O 9.08029383 4.49855719 3.33363404
O 10.37737306 5.41039103 1.08991252
O 10.38236131 0.85271125 1.08570099
O 14.25840113 0.85187919 3.33696492
O 14.27487426 0.84544628 7.81818415
O 14.26754528 5.40391050 7.81770807
O 9.08316958 1.75785876 7.82141666
O 1.32075246 1.76239783 12.30683775
O 5.21046800 4.50119692 10.06164101
O 6.50291980 5.41643569 12.30984715
O 5.21049785 4.50842836 14.55254045
O 2.62539117 0.86127013 14.54713609
O 2.61892921 5.41796481 14.54423012
O 5.20512552 1.76208791 10.06228761
O 5.21033535 1.76874739 14.55083035
O 1.33338606 4.50597430 16.79260255
O 1.32277565 4.50926245 12.30018769
O 2.62617634 5.40624655 10.06596238
O 2.62088997 0.85987327 10.06826419
O 6.49719885 0.85398119 12.30362539
O 6.50567656 0.85780505 16.79555802
O 6.50930226 5.41515775 16.79833328
O 1.32651897 1.76842344 16.79092814
O 9.07593478 9.06024954 12.30328797
O 12.97465740 11.80379372 10.06210403
O 14.26512627 12.70793784 12.30784100
O 12.98582549 11.80939291 14.56056430
O 10.37012081 8.15766035 14.54904124
O 10.39438385 12.71610762 14.55371228
O 12.95449387 9.05891774 10.06510309
O 12.96308439 9.07098775 14.55127129
O 9.09798194 11.80111063 16.79959482
O 9.09755367 11.79996728 12.30988216
O 10.38631281 12.70831795 10.06417986
O 10.36562688 8.14462561 10.06181169
O 14.26057155 8.15895213 12.30769656
O 14.25626550 8.16387636 16.79016067
O 14.27927047 12.72053005 16.80035274
O 9.07987221 9.05964156 16.79557968
O 1.31393869 9.07062358 12.31630393
O 5.21022453 11.80410051 10.07065684
O 6.50660708 12.71606167 12.31001072
O 5.21061890 11.81181404 14.55749832
O 2.60657103 8.15867833 14.55527996
O 2.62957602 12.72576449 14.54206142
O 5.18820503 9.06302241 10.07622168
O 5.18492314 9.07160704 14.56973552
O 1.33484613 11.81682826 16.79039248
O 1.32329503 11.81156815 12.30246677
O 2.62343787 12.71956932 10.06989116
O 2.60188544 8.14945870 10.08244105
O 6.48532556 8.16371043 12.31866226
O 6.48786643 8.15797156 16.81134336
O 6.50449481 12.71746073 16.80500328
O 1.30950623 9.07743439 16.79456461
H 9.52006261 1.42762578 13.08904680
H 8.18196745 1.42371629 12.31600450
H 13.40840120 4.83182765 10.84919900
H 12.06629425 4.83424906 10.08129277
H 14.28858385 6.37788549 12.30678624
H 15.18173691 5.11544250 12.29868916
H 13.44912350 4.83643027 15.32057547
H 13.45354242 4.83919034 13.77356270
H 10.37730697 14.49966397 14.56329102
H 9.91930149 1.15366406 15.33681262
H 9.95777688 5.07395966 13.75387490
H 11.29977776 5.09214847 14.52337681
H 12.94751490 2.72078242 10.06035331
H 12.05599133 1.45887918 10.05732808
H 12.04985450 1.47774798 14.54574889
H 12.95464045 2.73268471 14.54409283
H 9.10239982 3.53256755 16.76504685
H 9.55395331 4.79423642 15.99336018
H 9.06790938 3.53218226 12.29963655
H 8.18331256 4.80004491 12.30479393
H 9.92558989 5.09735854 10.84357477
H 10.36617590 6.36582507 10.07785759
H 9.90955927 1.17504130 9.28309885
H 9.91259001 1.17090664 10.82959701
H 13.78851764 1.18432767 13.07765145
H 13.79775690 1.18093538 11.53259867
H 14.25829426 14.50291848 16.77278120
H 13.80764991 1.15989448 15.99688084
H 13.83828297 5.09141701 17.58408472
H 15.17972066 5.08883612 16.81371273
H 8.18450552 1.42989176 16.81010019
H 9.52591657 1.43168810 17.58054870
H 9.09739144 10.02077034 3.31740608
H 9.52998769 8.75316737 2.54799294
H 12.98213290 10.84223580 1.06985672
H 13.44155394 12.10259726 0.30113755
H 13.79907541 12.37698542 2.56568942
H 13.79305361 12.38702159 4.11343768
H 13.41307917 12.12847730 6.37354387
H 12.06874904 12.13415617 5.60712258
H 9.89834468 8.46990154 6.35844827
H 9.90212217 8.47273111 4.81084505
H 9.92682489 12.40400013 4.79355297
H 10.36557368 13.66795328 5.56517567
H 12.05780814 8.73448428 1.10561526
H 13.39540327 8.74128273 1.88377076
H 12.94009132 10.02361577 5.58520512
H 12.04417892 8.76459728 5.58338072
H 9.55715626 12.12650116 8.60076803
H 9.55597854 12.12353930 7.05457102
H 9.53400037 12.13581683 2.54928101
H 8.18869581 12.12641674 3.31211342
H 11.30268536 12.41488292 1.09270489
H 10.41332999 13.67933174 1.09598727
H 10.36059364 7.18991110 1.07321542
H 9.91857545 8.45302293 0.30039591
H 13.81792575 8.49054339 4.12892071
H 15.15710318 8.49396440 3.35472960
H 14.24830805 7.18310550 7.79982487
H 13.79915063 8.44943370 7.03631706
H 15.19224312 12.40388067 7.82195825
H 14.30073355 13.66598045 7.82626273
H 9.08622401 10.01528005 7.84461505
H 9.53015715 8.75242725 8.61480143
H 1.78184244 8.74614435 4.11184230
H 1.77854957 8.73982051 2.56546178
H 4.28696400 12.09943313 1.09779906
H 5.18023922 10.83750174 1.09604886
H 6.49012707 13.66604464 3.31146896
H 6.04127365 12.40160173 2.54348045
H 4.30799765 12.13634216 5.56220451
H 5.64408537 12.13103458 4.78537947
H 2.17108306 8.47855084 6.37597715
H 3.51137907 8.49041224 5.60483475
H 2.60708217 13.68069634 5.56535296
H 2.16052754 12.42290463 4.78569942
H 5.65433585 8.73356875 1.87524650
H 5.66187252 8.72957570 0.32880808
H 5.64933710 8.76431665 6.37917636
H 5.20781603 10.02859895 5.60321743
H 1.34153853 10.84096619 7.80791703
H 1.78885703 12.10115236 7.02987667
H 1.30233522 10.85405018 3.33463961
H 0.40219570 12.11022419 3.33615225
H 2.14572076 12.38991541 1.86847331
H 2.15635658 12.39429127 0.32143618
H 2.62393517 7.19456092 1.09215598
H 3.51434075 8.45638124 1.09267915
H 6.05106364 8.48452865 4.13581203
H 7.38874962 8.47983661 3.36044992
H 6.50125715 7.18680125 7.82416926
H 7.39438424 8.44704884 7.83247730
H 6.06997563 12.38252792 7.03040463
H 7.40649752 12.38090501 7.81083086
H 0.41278733 8.73260381 7.84545612
H 1.74796220 8.73141727 8.62621647
H 1.74812072 1.44148204 4.13140383
H 0.41025668 1.43340705 3.35350012
H 5.68294266 4.83518082 0.32388235
H 5.67032875 4.83621970 1.87150751
H 6.47931031 6.37072282 3.36794875
H 6.03236064 5.10199135 4.13054773
H 5.17716677 3.53071881 5.58166359
H 4.28302738 4.79334974 5.58194792
H 2.18101389 1.19084113 6.37433641
H 3.51600460 1.17749321 5.59321287
H 2.60186465 6.37949275 5.56147409
H 2.15481827 5.12160653 4.78058244
H 4.28570190 1.47027508 1.09386144
H 5.18347855 2.72928436 1.09000419
H 5.66861409 1.42271414 6.35193985
H 5.67188884 1.43037836 4.80442674
H 1.75579823 4.84080358 7.02441583
H 0.42154510 4.83053474 7.80593326
H 1.78037014 4.80084482 2.53185583
H 1.32645500 3.54814624 3.31572696
H 3.52302411 5.08823385 1.07356340
H 2.18792082 5.08322437 0.29266577
H 2.15185308 1.15374916 1.88737497
H 2.60741392 14.49891496 1.11241671
H 6.05925592 1.18312266 2.54309011
H 7.40356301 1.17525399 3.30691496
H 6.48916557 14.48653412 7.84034702
H 6.03486730 1.14276177 8.61489434
H 7.40650573 5.07904917 7.79327244
H 6.06166984 5.07341465 7.02788327
H 1.78324957 1.47474666 8.61453905
H 1.33778614 2.73538050 7.83554193
H 9.09738561 2.71929952 3.34994466
H 9.54129113 1.45591654 4.12152900
H 13.41097545 4.84322995 1.88338571
H 12.07048724 4.83477743 1.11037330
H 15.18365639 5.11812028 3.32973580
H 14.28836918 6.37871965 3.34046227
H 13.43866945 4.79744388 4.78636140
H 12.98308875 3.53338233 5.55259590
H 9.93547180 1.17305200 6.36883748
H 11.27758915 1.16680117 5.59923489
H 11.30231495 5.10676222 5.56993992
H 10.40555136 6.36802348 5.58029757
H 13.42505340 1.47359536 0.29420457
H 12.98308064 2.73351421 1.07351035
H 13.44045671 1.42800141 6.34899290
H 13.42304856 1.42065752 4.80276875
H 9.56505892 4.82268107 7.04007708
H 9.55388685 4.82329994 8.58672740
H 8.17552259 4.82806261 3.36389582
H 9.52272424 4.82948044 4.12226950
H 9.90282927 5.08126793 1.86050362
H 9.91711555 5.07356893 0.31394392
H 11.28410875 1.19071195 1.09837123
H 9.95153692 1.18245003 1.88182202
H 13.80421459 1.15630895 2.54403861
H 14.24221824 14.49114041 3.31429792
H 15.17569258 1.18511906 7.84179891
H 13.83349663 1.17554026 8.60804518
H 13.79610883 5.07674198 8.59131697
H 13.80347269 5.06597779 7.04453684
H 9.06279481 2.72091115 7.81438726
H 8.16761437 1.45917270 7.82037887
H 1.75944283 1.43943284 13.10089512
H 0.41624906 1.43282744 12.33079281
H 5.22073332 3.53794947 10.04946017
H 5.67187983 4.79308782 9.26805348
H 6.48744648 6.37931608 12.29401097
H 6.04767407 5.11815951 11.51541441
H 4.30552653 4.83785263 14.53150510
H 5.64346260 4.83900254 13.75818877
H 3.52969671 1.19314778 14.56608406
H 2.19190442 1.18704295 15.34275081
H 2.16023477 5.12221719 13.75090734
H 2.60207630 6.38094148 14.53373848
H 5.63877796 1.43405158 10.85727382
H 4.29850799 1.43662860 10.08634229
H 5.66962237 1.47159001 15.34314540
H 5.22473571 2.73186835 14.56431505
H 1.78240689 4.80652872 15.99538769
H 1.34085968 3.54308791 16.77115510
H 1.78607534 4.79797278 11.50654568
H 1.32971844 3.54638411 12.28964928
H 2.19141642 5.08694107 9.26806312
H 3.53063201 5.07500560 10.04289004
H 2.60754169 14.49870270 10.08222901
H 2.15624835 1.15343906 10.85927249
H 6.48862731 14.49304636 12.32101099
H 6.04435372 1.15267918 13.09924690
H 6.03966909 1.15776812 17.58310558
H 6.49027694 14.49683704 16.81411363
H 7.41167491 5.07913190 16.76999750
H 6.06822206 5.09126747 16.00584624
H 1.75335753 1.43748179 17.58843204
H 0.42078488 1.44128050 16.80360751
H 8.15703269 8.77140122 12.30812748
H 9.06398954 10.02338554 12.30556099
H 12.97854089 10.84080198 10.04429194
H 13.44104107 12.09754864 9.27222403
H 14.25097899 13.67090895 12.29120968
H 13.80817906 12.40995657 11.51421377
H 13.43384453 12.10705535 13.76156038
H 12.98795632 10.84650267 14.53861033
H 9.91105645 8.45494429 13.75615512
H 10.36638579 7.19496777 14.52658540
H 9.95839110 12.38727453 15.34674600
H 11.29941151 12.38756823 14.57657275
H 13.41814539 8.72206130 9.29104642
H 13.42976104 8.73444962 10.83711497
H 13.39250533 8.73878809 15.34704024
H 12.05780066 8.74302313 14.56534199
H 9.53427814 12.13530872 17.59062367
H 8.19344392 12.13052375 16.81989665
H 9.56900299 12.13192599 11.53839140
H 9.56574685 12.12779014 13.08497237
H 11.30244996 12.41111137 10.05951481
H 10.40474881 13.67140834 10.06125722
H 11.27148074 8.47074045 10.08539637
H 9.92799225 8.47742677 10.85265413
H 13.82092959 8.48371561 13.10059743
H 15.16320287 8.49376244 12.33198322
H 14.25523646 7.20075274 16.80934960
H 13.79891709 8.45731681 17.58571064
H 13.84749935 12.38782528 16.00600978
H 15.18702918 12.39877937 16.77643596
H 9.53312436 8.76504601 15.99859118
H 9.09484645 10.02263563 16.78414902
H 1.78437488 8.74310025 13.09024539
H 1.78067571 8.73329555 11.54387850
H 5.64281287 12.13426102 9.27622841
H 4.30635748 12.13686988 10.05494681
H 6.07216491 12.38421135 11.51713137
H 7.41169717 12.38790139 12.29141757
H 4.30789077 12.14725002 14.52960308
H 5.65078098 12.13275130 13.76346316
H 3.50979237 8.49301772 14.58260712
H 2.16544575 8.48525607 15.34644697
H 2.61775718 13.68893454 14.52811884
H 2.16409397 12.42897784 13.75326972
H 5.64589050 8.75747134 9.28568334
H 5.20185845 10.02583108 10.04970189
H 5.64773150 8.76985539 15.35841322
H 5.20526833 10.03442172 14.58546144
H 1.34153427 10.85393982 16.77169948
H 1.79424285 12.11538798 15.99862638
H 1.30399868 10.84861283 12.31013227
H 0.40681226 12.10776725 12.30256854
H 2.15671473 12.38783321 9.29566951
H 2.15159660 12.38713004 10.84143667
H 3.51467531 8.45722727 10.07222652
H 2.63444943 7.18683219 10.07550992
H 6.01468813 8.49457330 11.54603138
H 6.01435943 8.48743746 13.09344820
H 6.51419059 7.19514042 16.80238179
H 7.40257740 8.45928941 16.80091879
H 6.03147636 12.37947100 17.57316757
H 6.03712944 12.39398853 16.02757852
H 1.74081402 8.74375543 17.58810009
H 0.40312473 8.75180309 16.81228904
