384

O 9.08379958 1.75907485 12.31255155
O 12.96816236 4.50032923 10.07143834
O 14.27149811 5.40841922 12.31152811
O 12.96912507 4.49833817 14.55249409
O 10.36963622 0.84194842 14.56156347
O 10.38295659 5.39626944 14.54663572
O 12.96087551 1.76086719 10.08097991
O 12.95000860 1.75541543 14.55506625
O 9.09094718 4.49237293 16.79244225
O 9.08243666 4.49693549 12.30984732
O 10.38011181 5.40591890 10.06834194
O 10.37518061 0.84693715 10.07016860
O 14.25823559 0.85163468 12.31495075
O 14.25832792 0.84995374 16.80027088
O 14.26387563 5.40778049 16.79123296
O 9.07395491 1.74992805 16.80178937
O 9.08996016 9.05632530 3.33715546
O 12.97851978 11.80282476 1.09857603
O 14.27577039 12.70968564 3.34322439
O 12.97595838 11.80212124 5.58084064
O 10.38293495 8.15400419 5.59103824
O 10.38852115 12.71211170 5.57256250
O 12.97074853 9.06412910 1.09083863
O 12.96499733 9.06522975 5.58297698
O 9.09710680 11.80542213 7.81871223
O 9.09361737 11.79739351 3.33080601
O 10.39248363 12.70813920 1.09281391
O 10.38422402 8.14948043 1.09174889
O 14.25427381 8.15118887 3.33514161
O 14.26124921 8.14825145 7.83000871
O 14.26066571 12.71429409 7.82465581
O 9.07528273 9.06092719 7.82952583
O 1.31248097 9.06583834 3.32827069
O 5.21282137 11.80213714 1.08490528
O 6.50650798 12.71598190 3.33245050
O 5.20621287 11.81252586 5.58055670
O 2.60059020 8.16274375 5.57093227
O 2.61164375 12.72119808 5.58363887
O 5.20414658 9.06046822 1.08781791
O 5.18847338 9.06794206 5.57574049
O 1.30971077 11.81036693 7.82680454
O 1.33710895 11.80902921 3.33764138
O 2.62170549 12.71746337 1.09084373
O 2.62152800 8.15948963 1.09716644
O 6.49591798 8.16506005 3.33890273
O 6.48319901 8.15525363 7.81899676
O 6.51455162 12.72402801 7.82051043
O 1.31935764 9.06755910 7.82868076
O 1.30753819 1.77282429 3.33718559
O 5.20100084 4.51226940 1.09459877
O 6.50119147 5.42490238 3.33401210
O 5.20186960 4.50603215 5.57586473
O 2.60147761 0.85596083 5.57482351
O 2.61927092 5.41869818 5.57638164
O 5.20371964 1.77334793 1.09030757
O 5.19177347 1.76717320 5.57639638
O 1.32509271 4.51163552 7.82242027
O 1.33449220 4.51786776 3.33296976
O 2.61593004 5.42153909 1.08371329
O 2.61642931 0.86054378 1.10024405
O 6.48871929 0.85766046 3.33705477
O 6.49234530 0.86162977 7.81728721
O 6.50347605 5.41458824 7.80940498
O 1.31476471 1.76845040 7.82063685
O 9.08056941 1.76147420 3.33887588
O 12.97829007 4.50125009 1.09727438
O 14.27576744 5.40971290 3.33887961
O 12.97453755 4.50737644 5.58273583
O 10.37814492 0.85425133 5.58236403
O 10.38860192 5.41134609 5.57991902
O 12.96302693 1.76091502 1.09528103
O 12.96764935 1.76468494 5.58407227
O 9.09494125 4.50432708 7.81829818
O 9.09443282 4.50223778 3.33137635
O 10.38757000 5.40962906 1.08663897
O 10.37257308 0.84501616 1.09666931
O 14.25567706 0.85233258 3.33890395
O 14.25609154 0.85727731 7.83307828
O 14.26516600 5.41109104 7.83553869
O 9.08552632 1.76142036 7.82352530
O 1.31225702 1.76259484 12.30975494
O 5.21131146 4.50506624 10.04528079
O 6.49803132 5.40737067 12.29633481
O 5.21106037 4.50171720 14.54403562
O 2.61079251 0.85807699 14.54703383
O 2.61805883 5.41494615 14.55097304
O 5.19279944 1.76398685 10.05513436
O 5.19929134 1.76005644 14.54670865
O 1.32194371 4.50538843 16.79282430
O 1.32312445 4.50300909 12.30703623
O 2.61804248 5.42236658 10.06366510
O 2.61022846 0.85909266 10.06788004
O 6.49010906 0.85474959 12.29569119
O 6.48269202 0.85368205 16.79092608
O 6.50253132 5.41092842 16.79136462
O 1.31699805 1.76189223 16.79543451
O 9.08732496 9.06265916 12.31383342
O 12.98429402 11.80157223 10.07737274
O 14.27180104 12.71226130 12.31805168
O 12.97088111 11.79829671 14.55767502
O 10.38186707 8.14384621 14.55283071
O 10.38076744 12.69956481 14.54962492
O 12.96121004 9.05852467 10.06970767
O 12.96431789 9.05960591 14.56114281
O 9.09659461 11.79797251 16.79549982
O 9.09493732 11.80370223 12.30502505
O 10.38996442 12.70892883 10.06574719
O 10.37145531 8.14885854 10.06372919
O 14.25847164 8.15080366 12.31285501
O 14.26928335 8.15356434 16.79580238
O 14.26908572 12.70845678 16.79969590
O 9.08302852 9.05347814 16.80276531
O 1.31831749 9.06302299 12.31386490
O 5.20104988 11.80900934 10.05596611
O 6.50491003 12.71546598 12.28910219
O 5.21474938 11.80711443 14.53867235
O 2.61708555 8.15841783 14.55478008
O 2.62749575 12.71455197 14.54227414
O 5.20071159 9.06716141 10.06461796
O 5.21173335 9.06425814 14.54610959
O 1.32716564 11.81345468 16.78966481
O 1.32751198 11.80472685 12.31075196
O 2.61366036 12.71682221 10.06550227
O 2.61075016 8.16292531 10.06775508
O 6.50279498 8.15193320 12.30085657
O 6.48857689 8.15208372 16.78925495
O 6.50479952 12.71163766 16.78546696
O 1.32580097 9.07212981 16.79983494
H 8.16888284 1.45873720 12.30911219
H 9.05973103 2.72195140 12.31034093
H 12.94759228 3.53736545 10.07936359
H 12.05242465 4.79866933 10.07039959
H 13.80507282 5.10734137 11.52438738
H 14.25179894 6.37129982 12.29398464
H 13.43813187 4.82677083 15.32706375
H 13.44046803 4.82750041 13.77997752
H 11.27423625 1.17267009 14.53719023
H 9.93225856 1.17420196 13.77046310
H 11.29963790 5.09950121 14.55004292
H 10.40411804 6.35916124 14.55012427
H 13.43360175 1.42612902 10.85072989
H 13.42942864 1.43756138 9.30413852
H 12.96802596 2.71829734 14.53824786
H 13.41603782 1.45620808 13.76711537
H 9.56036185 4.82176279 16.01847614
H 9.56364648 4.82332951 17.56372887
H 9.55831672 4.82220245 13.08171142
H 9.55052659 4.82447472 11.53444423
H 10.36394473 6.36877752 10.04938940
H 9.92551279 5.10668064 9.27364038
H 9.94053561 1.17702285 10.86372054
H 11.27937477 1.17820141 10.09011157
H 15.17290672 1.15357039 12.31619324
H 14.28392118 14.49070002 12.31493646
H 13.79750050 1.14829782 16.00906555
H 14.24611963 14.48895354 16.78257069
H 13.81177959 5.10710628 17.58682486
H 14.25451561 6.37053264 16.81427815
H 9.09333575 2.71263309 16.77821095
H 9.53372320 1.44590731 16.01171064
H 9.54641791 8.75793191 4.13073586
H 9.10667612 10.01926242 3.35406636
H 12.07609215 12.13903714 1.11822507
H 13.41726484 12.13066198 1.89063312
H 14.29501980 13.67251342 3.34240146
H 15.19239001 12.41409691 3.33792421
H 13.43886523 12.09893314 4.79018517
H 12.98333511 10.83910938 5.56313594
H 10.37415790 7.19106220 5.60454954
H 9.91535623 8.44892216 6.37939424
H 9.95281566 12.38269368 6.36592597
H 11.29297965 12.38165099 5.59436872
H 12.94914862 10.02732320 1.09507231
H 12.05453047 8.76667208 1.08640655
H 12.05978456 8.73678172 5.61092330
H 13.40553359 8.73335995 6.37218621
H 9.53598043 12.13342420 8.61081233
H 8.19572730 12.14461463 7.84070916
H 9.56455176 12.12680767 2.55794816
H 9.56224098 12.12731214 4.10481167
H 9.93604366 12.40428929 0.30078808
H 10.36844282 13.67100353 1.07244205
H 9.91708602 8.47435522 1.86875337
H 9.90512943 8.47489162 0.32185972
H 13.78602585 8.48219053 2.56116885
H 13.78214525 8.47804783 4.10806818
H 15.17538016 8.45044600 7.82857809
H 14.28616136 7.18528473 7.83219575
H 14.24539068 13.67717146 7.80897258
H 13.80602457 12.41524974 7.02977288
H 8.15830065 8.76659870 7.82196951
H 9.05885765 10.02401844 7.82576043
H 1.74741815 8.73575891 4.12202812
H 0.40557275 8.74332641 3.35153997
H 4.29868197 12.10516376 1.08522537
H 5.18531660 10.83929679 1.08685824
H 6.06953428 12.38353501 2.54137602
H 7.41090033 12.38566685 3.31016518
H 5.67699399 12.13923446 4.80675412
H 5.67710889 12.14306623 6.35270541
H 3.51468989 8.46677601 5.56811193
H 2.63025294 7.20010861 5.57742731
H 2.18439169 12.38723452 4.78740830
H 3.51875267 12.39840050 5.56779819
H 5.64132487 8.73822948 1.88321458
H 4.29880256 8.73184381 1.11591599
H 5.20511597 10.03082692 5.56283560
H 5.65483109 8.77312033 4.78619120
H 0.40588424 12.14308659 7.80187136
H 1.74875789 12.13925245 7.03541147
H 1.78856625 12.10671132 2.54065961
H 1.33868641 10.84625344 3.31682687
H 2.61422177 13.68042081 1.07500262
H 2.16267647 12.42429045 0.29643940
H 2.15296327 8.45589216 1.88494884
H 2.60265519 7.19627355 1.10999276
H 6.51556962 7.20217347 3.33879503
H 7.41252872 8.46055882 3.34147756
H 6.47794283 7.19235827 7.79715273
H 6.02471061 8.45417872 7.02668044
H 6.49196942 13.68694619 7.83781887
H 6.04659912 12.42149640 8.60595457
H 1.77136185 8.77084643 7.03177486
H 1.31919508 10.03056589 7.80559694
H 1.78357307 1.44582327 2.56650499
H 1.76969242 1.43634726 4.11248735
H 4.29639451 4.84221411 1.06832271
H 5.63991941 4.83574889 0.30100041
H 6.03511875 5.09152936 4.10793191
H 6.02622552 5.10089448 2.56153506
H 5.66672002 4.80004375 6.36666454
H 5.21116619 3.54286078 5.59018578
H 2.59106968 14.49515833 5.59832916
H 2.15007751 1.15853567 6.36993162
H 3.52309749 5.08602981 5.60096643
H 2.18113951 5.09431189 6.37031466
H 5.21013774 2.73626379 1.11182946
H 5.65892983 1.47320886 1.88407407
H 4.28724445 1.43741543 5.55645259
H 5.62891805 1.43362456 4.78563907
H 1.76069268 4.84818046 8.61272317
H 0.41711245 4.83168957 7.84701213
H 1.79400017 4.81461431 4.12606670
H 1.33994866 3.55502863 3.35461147
H 2.14050705 5.08746012 0.31538193
H 2.15581367 5.08922615 1.86200545
H 3.51952247 1.19431538 1.07729466
H 2.17914375 1.18713300 0.30685834
H 6.51681255 14.49707605 3.32824215
H 7.40331416 1.15975704 3.34035706
H 6.02332729 1.18530866 7.04086750
H 6.01844110 1.19324454 8.58748727
H 6.07137539 5.08349208 8.60437719
H 7.40969215 5.08944861 7.82927458
H 1.33035536 2.73129143 7.84149966
H 1.76657860 1.46747837 8.61602287
H 9.53672077 1.46389083 4.13302009
H 9.09680692 2.72429457 3.35297325
H 13.44012366 4.79359534 1.89007668
H 12.97961219 3.53826025 1.11260033
H 14.28491751 6.37274059 3.33281631
H 15.19502844 5.12267752 3.33850795
H 12.98300519 3.54455283 5.55955989
H 13.43834059 4.80813004 4.79393052
H 9.92159122 1.14825919 6.37798543
H 10.37174382 14.49328315 5.60043987
H 11.29469723 5.08479301 5.55628223
H 9.95418181 5.08816657 4.78373125
H 13.39445069 1.42625806 0.30183118
H 12.05720179 1.43420083 1.07865189
H 13.39856547 1.43200305 4.78970727
H 12.06253140 1.43585150 5.56860227
H 9.55494465 4.79706516 7.02435289
H 9.10174143 3.54141077 7.80336556
H 9.53034078 4.83223233 2.53843825
H 8.19023144 4.83209942 3.31144023
H 10.40900562 6.37256586 1.08802681
H 11.30297178 5.11058743 1.09582352
H 9.90387149 1.17345115 1.87117776
H 9.90077014 1.17508957 0.32443982
H 15.15783413 1.18901532 3.31938591
H 13.82014790 1.17694130 2.54359069
H 15.15956054 1.18992735 7.81172942
H 13.82041618 1.18653833 7.03988299
H 13.79127865 5.07775348 8.60512532
H 13.80111818 5.08234743 7.05834336
H 8.17795266 1.43958496 7.84092497
H 9.51606561 1.43148678 8.61912427
H 1.77534523 1.46904756 13.10161977
H 1.32278313 2.72559537 12.32258343
H 5.66599677 4.80207983 10.84066396
H 5.21033280 3.54210110 10.06955847
H 6.52195049 6.37037967 12.29829621
H 7.41410725 5.10954040 12.30423103
H 5.64392638 4.83334688 13.75016209
H 4.30677029 4.83197780 14.52785787
H 3.52551144 1.16015461 14.55076061
H 2.63875898 14.49752251 14.54290307
H 2.14802525 5.08471848 13.77791685
H 2.14843356 5.08366672 15.32384519
H 5.63014411 1.43144252 10.84632096
H 4.28795559 1.43370412 10.08092188
H 5.65472383 1.46865042 15.34391721
H 5.21064970 2.72307996 14.55765864
H 0.40693543 4.80640676 16.79245354
H 1.29728163 3.54254382 16.78969155
H 1.76359378 4.83552770 11.51788415
H 0.41913601 4.83474558 12.28212112
H 3.53202976 5.11923637 10.05646031
H 2.64448469 6.38526125 10.06069969
H 2.15062350 1.15646009 10.86044520
H 2.59580396 14.49821347 10.08312992
H 6.48226557 14.49366094 12.31182568
H 6.03450843 1.14956466 13.09133093
H 7.38929886 1.17847108 16.81086352
H 6.05198890 1.18624091 17.58576182
H 6.07088386 5.08212683 15.99585062
H 7.40658024 5.07944572 16.77585320
H 0.41377286 1.42829669 16.77642724
H 1.75154275 1.43221716 16.00158647
H 9.54776596 8.76392308 13.10518460
H 9.10309425 10.02555865 12.32877459
H 12.98575586 10.83877926 10.05298286
H 13.42996036 12.10111265 9.27782737
H 13.84365100 12.38013515 11.52153910
H 15.17648038 12.38192105 12.30410153
H 12.06646083 12.12840515 14.53118759
H 13.41065537 12.12608384 13.76595395
H 11.28616942 8.47493638 14.58018052
H 9.94369932 8.46793944 15.34653218
H 9.92519940 12.40469452 13.75349583
H 10.36897978 13.66267278 14.53389286
H 13.40129783 8.72306530 9.28144260
H 12.05504719 8.73337301 10.04307068
H 13.43058756 8.76330803 15.35014924
H 12.97819685 10.02267248 14.57596148
H 9.52798544 12.12022285 15.99658910
H 8.19411336 12.13383246 16.77743202
H 9.53450315 12.13097614 11.51290725
H 8.18861898 12.12812827 12.27625857
H 10.41479455 13.67179214 10.07062804
H 11.30454523 12.40729686 10.07076386
H 9.90847647 8.47721545 10.84176096
H 9.89578778 8.48359247 9.29580032
H 13.78485203 8.48126745 11.54222697
H 13.79294942 8.48054242 13.08868421
H 15.17549490 8.47815230 16.81961686
H 13.83188673 8.48758247 17.58627782
H 13.79707758 12.37692304 16.02864873
H 13.80182665 12.38180058 17.57610281
H 8.16720973 8.75557436 16.79451808
H 9.06220606 10.01630528 16.79401561
H 0.41264029 8.73686966 12.29301569
H 1.75195291 8.73775606 11.51769257
H 5.18438775 10.84595965 10.05571167
H 4.28377044 12.10286770 10.05524687
H 6.04357474 12.38085974 13.06547696
H 6.02770008 12.38640506 11.51962023
H 5.67030436 12.10973950 15.33160078
H 5.22784856 10.84423214 14.56188806
H 2.60261024 7.19553327 14.53453061
H 2.15574876 8.45667343 13.76359357
H 3.53218160 12.38429100 14.56576874
H 2.19135906 12.39073179 15.33748316
H 5.66324687 8.73072943 9.28976433
H 5.67365457 8.73971518 10.83705739
H 4.30597213 8.73756546 14.56196056
H 5.64030968 8.72933640 15.34122693
H 1.30959151 10.85047388 16.79295930
H 0.40951029 12.10595656 16.79139104
H 1.33533290 10.84196294 12.33229409
H 1.79013980 12.10365034 13.10105987
H 2.14998871 12.38313224 10.84093231
H 2.13699874 12.39260611 9.29405365
H 3.51562092 8.49253702 10.05244627
H 2.18073292 8.49533859 9.27229559
H 7.40551533 8.48715756 12.32570103
H 6.06557788 8.47742837 13.09492892
H 6.03295553 8.44442193 17.58605267
H 6.48809486 7.18901294 16.80570982
H 6.04694567 12.40703639 17.57629797
H 6.48659971 13.67434052 16.81003969
H 1.79837287 8.74219452 17.57116081
H 1.79150726 8.74264481 16.02394126
