384

O 9.08428294 1.75743578 12.31813636
O 12.99153087 4.51014114 10.05658692
O 14.27497622 5.41618040 12.30662870
O 12.97085300 4.50102868 14.53980203
O 10.37498325 0.84950249 14.55550109
O 10.38262316 5.40386018 14.55205901
O 12.97194728 1.77243226 10.06769272
O 12.96080113 1.75540242 14.54971089
O 9.08874458 4.48986683 16.79475407
O 9.09836157 4.49838610 12.30127024
O 10.39998736 5.41568853 10.06091393
O 10.38627279 0.85249648 10.06969427
O 14.25797443 0.85428089 12.30904445
O 14.25319985 0.85180604 16.79977106
O 14.26422812 5.40863296 16.78104431
O 9.07741899 1.75090103 16.79847740
O 9.07463073 9.06052043 3.33490956
O 12.95967382 11.79204782 1.08934350
O 14.26544025 12.71228970 3.32671400
O 12.97472532 11.80794987 5.56933300
O 10.38254376 8.16262338 5.57145449
O 10.38407675 12.71569573 5.57414479
O 12.96263336 9.05618104 1.08945074
O 12.97325883 9.06328008 5.57638509
O 9.08995221 11.81157289 7.81721324
O 9.08705258 11.80064817 3.33492655
O 10.37676898 12.70406485 1.09010118
O 10.37027192 8.14702157 1.09533534
O 14.26173260 8.15653798 3.32511826
O 14.26875099 8.16240020 7.81908193
O 14.26750373 12.71995017 7.80691766
O 9.09477781 9.06931214 7.82108639
O 1.32280439 9.07002279 3.33928516
O 5.20150988 11.79805451 1.09806876
O 6.49789111 12.71033329 3.34306788
O 5.20935116 11.79961894 5.59604768
O 2.61878158 8.15651438 5.58460091
O 2.61833288 12.70749863 5.58001740
O 5.20022315 9.05436024 1.09473291
O 5.20238868 9.05570716 5.58040024
O 1.32282993 11.81657767 7.82347588
O 1.32405121 11.81381794 3.33838713
O 2.61178887 12.70612089 1.08899983
O 2.61105265 8.15565295 1.09333049
O 6.48767013 8.14585396 3.32436794
O 6.50196584 8.16789663 7.82364810
O 6.50163883 12.72092477 7.82735345
O 1.32564334 9.07128285 7.83637461
O 1.32624539 1.76351991 3.34321169
O 5.19925949 4.50012343 1.09079514
O 6.49497615 5.40766689 3.33483798
O 5.21491387 4.50514068 5.58905547
O 2.61175246 0.85516126 5.59641543
O 2.62706930 5.41577296 5.58850862
O 5.18768496 1.75887065 1.09087656
O 5.19754709 1.76677315 5.58765641
O 1.32578087 4.51395860 7.82909680
O 1.32886958 4.51069568 3.35195195
O 2.61758417 5.41510545 1.09889492
O 2.60269502 0.84600438 1.09063221
O 6.47982549 0.84699676 3.33953991
O 6.49602957 0.85929779 7.81920216
O 6.50982224 5.42178437 7.82784073
O 1.31338277 1.77423548 7.83506645
O 9.06270911 1.76038728 3.33779173
O 12.97247838 4.50074655 1.08563256
O 14.27468938 5.41273120 3.32672843
O 12.97025157 4.51120783 5.55181700
O 10.37740648 0.85464839 5.58006556
O 10.37986949 5.41876046 5.56755228
O 12.95760024 1.75561153 1.09899927
O 12.96483059 1.76511827 5.57112211
O 9.09843863 4.50569378 7.82080775
O 9.08483699 4.50321769 3.32891896
O 10.38553558 5.40995372 1.09399331
O 10.37083191 0.84917901 1.10525580
O 14.27144017 0.85341987 3.33526798
O 14.25760669 0.86399469 7.82337395
O 14.27005217 5.41678042 7.80087195
O 9.08528753 1.75922992 7.82824222
O 1.31147901 1.76260118 12.31827576
O 5.21337850 4.51547084 10.07137581
O 6.51771965 5.41236513 12.30964949
O 5.21785279 4.49610206 14.55033889
O 2.60527894 0.85175236 14.56382598
O 2.62521523 5.41010349 14.55546361
O 5.19925121 1.76988320 10.06612287
O 5.20052825 1.75361207 14.55547949
O 1.32015702 4.51036475 16.79687969
O 1.32963967 4.50489907 12.30752026
O 2.62281643 5.42103807 10.06916370
O 2.61121355 0.86033764 10.07376366
O 6.48989429 0.85893240 12.30583515
O 6.48600362 0.84512852 16.79961063
O 6.50588156 5.40195504 16.80302740
O 1.30001479 1.76546979 16.79711458
O 9.07815995 9.05450705 12.30894912
O 12.98626007 11.80844470 10.05944756
O 14.27092577 12.71954242 12.30616141
O 12.96917327 11.81334886 14.54668294
O 10.37792444 8.14383743 14.54622877
O 10.38235312 12.71053048 14.54177456
O 12.97017992 9.07039274 10.05922002
O 12.96139607 9.06401655 14.54325558
O 9.08961025 11.79444586 16.78083710
O 9.09502395 11.79460816 12.29576689
O 10.38997121 12.71378685 10.06172738
O 10.37996566 8.15522385 10.06426645
O 14.25932040 8.15990060 12.29642482
O 14.24960749 8.15823991 16.78477265
O 14.25828836 12.71063722 16.79099561
O 9.08016243 9.05466175 16.78934467
O 1.32399617 9.06071441 12.30749075
O 5.20605353 11.80971358 10.06749087
O 6.50637773 12.71782958 12.30777851
O 5.20785896 11.80268440 14.55018271
O 2.60254115 8.15536057 14.56079839
O 2.61361054 12.71602942 14.55822142
O 5.21164479 9.07053472 10.06952293
O 5.19539486 9.06144847 14.55299858
O 1.31026747 11.80086706 16.79322886
O 1.32386886 11.80619631 12.31017701
O 2.61903445 12.72498207 10.06836739
O 2.62550176 8.15671710 10.06688240
O 6.48884792 8.15193108 12.32035983
O 6.49846705 8.14089259 16.79363396
O 6.49185300 12.70708112 16.79308378
O 1.30442734 9.05964962 16.79934329
H 8.16687458 1.46471521 12.30754258
H 9.06870586 2.72062716 12.30746870
H 13.44410334 4.80555496 9.25977785
H 12.99452001 3.54710570 10.03874145
H 13.79962465 5.08373922 13.07551718
H 13.81171142 5.08876884 11.52816063
H 12.06653185 4.83083530 14.56668912
H 13.41125020 4.83001346 15.33089857
H 9.90055971 1.17826366 13.78412860
H 9.90512147 1.17284451 15.33159099
H 9.91056443 5.07039103 15.32223163
H 9.91945694 5.07483636 13.77427627
H 12.06704753 1.44289724 10.08614803
H 13.40360381 1.43970135 10.86202626
H 12.94170394 2.71826967 14.54672995
H 12.04339869 1.46106023 14.55393685
H 9.52957379 4.82624105 17.58202208
H 8.18382026 4.81942926 16.82208507
H 8.19720491 4.83822844 12.27672506
H 9.54121660 4.82851688 11.51231141
H 10.41491591 6.37880236 10.06070100
H 11.31726743 5.12270728 10.05847012
H 10.37670326 14.49149293 10.09015073
H 9.92415213 1.15095596 10.86013024
H 14.25196035 14.49311499 12.32404187
H 13.79569250 1.14899812 13.10105353
H 13.81221763 1.17854499 16.00818076
H 15.15463318 1.19071911 16.77500784
H 14.28182893 6.37142818 16.78492034
H 15.18190869 5.11560710 16.78540767
H 9.09300655 2.71368840 16.82202963
H 9.53326533 1.44769845 17.59086671
H 9.53947690 8.76551574 4.12524157
H 9.08638653 10.02354746 3.35084987
H 13.42055885 12.09462068 0.29990583
H 12.97421041 10.82904568 1.06948395
H 13.79364715 12.37889755 2.55641012
H 13.79989393 12.38215170 4.10279844
H 12.06980913 12.13634605 5.59317729
H 13.41514139 12.14601839 6.35666933
H 9.94851154 8.49413384 6.36475605
H 11.28925081 8.48690456 5.59464326
H 9.91255968 12.38605773 6.34651706
H 9.91938611 12.38123412 4.79965965
H 13.39623492 8.72594244 1.88374310
H 12.05637313 8.73124309 1.10977069
H 13.43478498 8.77104245 6.36973896
H 12.98599989 10.02647770 5.58923585
H 9.53133448 12.13878248 8.60826937
H 8.18752573 12.14675192 7.84194228
H 9.52234015 12.12506202 2.53914304
H 8.18410090 12.13465456 3.31611955
H 9.94550330 12.37630479 0.29406258
H 11.28003121 12.36918310 1.07323980
H 9.90434016 8.47577893 0.31926411
H 9.89766965 8.47749665 1.86668509
H 13.80776375 8.45239415 4.12123793
H 14.25857196 7.19338797 3.34478030
H 13.82992260 8.48504897 8.61328597
H 15.17436068 8.48884182 7.84709906
H 15.18329076 12.42093475 7.81007337
H 14.28970897 13.68258472 7.81764255
H 9.07099750 10.03216890 7.82117945
H 8.17913631 8.77007802 7.81675914
H 0.40722259 8.77197875 3.33121320
H 1.30076073 10.03312107 3.33893888
H 5.65917945 12.09262523 1.89226123
H 5.21318335 10.83491085 1.11194182
H 6.47970443 13.67338732 3.35914623
H 6.04462950 12.41119270 4.13800369
H 5.18741281 10.83670699 5.58750867
H 4.29369268 12.09807808 5.58429629
H 2.60527765 7.19340202 5.56525304
H 2.15342524 8.45761870 4.79707136
H 2.60976517 13.67050456 5.56783351
H 2.16079610 12.41792576 4.78307575
H 5.67036085 8.71576286 1.86496329
H 5.66779107 8.72759425 0.31901745
H 5.63358489 8.72915880 4.78385465
H 4.29662281 8.72736273 5.56087248
H 1.33576605 10.85359085 7.81439271
H 1.78225387 12.10682722 7.02812614
H 1.75959530 12.13798789 2.54255297
H 0.41863353 12.14106592 3.31421378
H 2.63512934 13.66901291 1.08461238
H 3.52685620 12.40567159 1.09300792
H 2.17532762 8.49416028 1.88261813
H 3.51751634 8.48121246 1.11367140
H 7.40198385 8.44872844 3.33601790
H 6.51415794 7.18283928 3.33161907
H 6.49817912 7.20486601 7.80874178
H 6.04299570 8.45715837 7.02759441
H 6.03123518 12.39310781 8.60095114
H 6.03377151 12.38497016 7.05485962
H 1.80134063 8.74042313 8.60614814
H 1.78782384 8.73686166 7.06084374
H 1.75587167 1.43255797 2.54742737
H 0.42273664 1.42996436 3.32894678
H 4.29491895 4.83123432 1.11420473
H 5.63458940 4.82332813 1.88672477
H 6.06552210 5.07922114 4.13177168
H 7.39954625 5.07716169 3.34851457
H 5.18502495 3.54241393 5.59015542
H 4.30096036 4.80952733 5.58971613
H 2.17748836 1.18645133 4.80324168
H 3.51629635 1.18539410 5.57582555
H 2.15574591 5.09071074 6.36323722
H 2.15501217 5.08245702 4.81755110
H 5.20106627 2.72189769 1.07417266
H 5.64763540 1.46150606 0.29847629
H 5.66883842 1.43553887 6.36007825
H 5.66349956 1.43526467 4.81304362
H 1.30451587 3.55096968 7.83195568
H 0.41032963 4.81283093 7.81830655
H 1.30752902 3.54782071 3.34270434
H 0.41215794 4.80705266 3.34068853
H 2.15979525 5.11354825 1.89070892
H 2.60269291 6.37802733 1.11956725
H 3.50549815 1.18189710 1.07108906
H 2.16635660 1.17896520 0.29932673
H 7.38295806 1.18176850 3.31501374
H 6.04145360 1.17575501 2.54754614
H 6.51445512 14.49826920 7.82413061
H 7.41316162 1.15371306 7.82484205
H 7.41444513 5.09146758 7.81085226
H 6.07651637 5.08769877 7.03523810
H 1.78172847 1.44316043 7.06128865
H 1.78365919 1.44529042 8.60834019
H 9.52876684 1.45768969 2.55092710
H 9.08180208 2.72318454 3.31721892
H 13.43297648 4.79514528 0.29274572
H 12.97733553 3.53780414 1.06900486
H 13.79873018 5.08146296 4.09645232
H 13.80765135 5.08547216 2.55069444
H 12.05493231 4.81070309 5.56246148
H 12.94723208 3.54833174 5.56262181
H 9.91341607 1.15834458 4.79266574
H 10.36286112 14.49391544 5.55479297
H 10.36861623 6.38165324 5.58917076
H 9.92952824 5.11798206 6.36386652
H 13.42649738 1.42608597 0.32494058
H 13.43228960 1.43196400 1.87194985
H 12.06122144 1.43185561 5.58874726
H 13.39674384 1.44388551 6.36947885
H 9.10734760 3.54299373 7.84296790
H 9.56176094 4.80510042 8.61044624
H 9.55498280 4.83334919 2.55548781
H 9.55367672 4.83661854 4.10133390
H 11.30148717 5.11205233 1.08619799
H 10.40411922 6.37296355 1.09181783
H 10.39182690 14.48833640 1.10054732
H 11.28770848 1.14442185 1.10333002
H 13.80855211 1.15434564 4.12469142
H 14.25349111 14.49277093 3.35492120
H 13.82471155 1.18964846 8.61978019
H 15.16114068 1.19655807 7.84236966
H 14.26090223 6.37970666 7.78987313
H 13.81084456 5.12439514 7.00708059
H 9.55494267 1.42755355 8.60079717
H 9.55498486 1.43306864 7.05335079
H 1.74309198 1.43066485 13.11261223
H 0.40711565 1.43080156 12.33343138
H 4.30678930 4.83967968 10.04729415
H 5.64964295 4.84450095 9.27815816
H 6.05036552 5.11406174 11.52170952
H 6.49293445 6.37546259 12.29610834
H 5.68353279 4.82140622 15.32810181
H 5.69099738 4.83052411 13.78124859
H 2.62697867 14.49078246 14.56497691
H 3.52089128 1.14956273 14.55883660
H 3.53069273 5.08369868 14.53052724
H 2.18686610 5.07735891 13.76507295
H 5.21506796 2.73272479 10.04738489
H 5.65314344 1.47017193 9.27134120
H 5.65326459 1.45667714 13.75883735
H 5.21340180 2.71656089 14.53782190
H 1.79594087 4.83621032 16.02566835
H 1.78822339 4.83602763 17.57298456
H 0.41577999 4.80989225 12.31381147
H 1.29840660 3.54215154 12.31312157
H 2.15542353 5.08813820 10.84300130
H 2.14891297 5.09349047 9.29716783
H 2.17386273 1.18510364 10.86794157
H 3.51420715 1.19425515 10.09348891
H 6.48661464 14.49808751 12.29007565
H 6.03360924 1.15308792 11.51045232
H 6.05589041 1.17003705 16.00119827
H 7.39219927 1.17078371 16.78057404
H 6.03920130 5.10524029 17.59183429
H 6.49125321 6.36500194 16.81786761
H 1.31711885 2.72832273 16.77999114
H 1.76360310 1.46476913 16.00796099
H 8.17179484 8.72969100 12.33635732
H 9.51885757 8.71706499 13.09603704
H 12.99026421 10.84553824 10.03702993
H 13.43835452 12.10814391 9.26379367
H 15.17543622 12.38951030 12.28453735
H 13.83753743 12.39089484 11.51105723
H 13.43978675 12.14301002 15.31999897
H 13.44263127 12.13701289 13.77291552
H 11.29239207 8.44588764 14.54294943
H 10.40168642 7.18105234 14.54770957
H 11.30020863 12.41798669 14.54553610
H 10.39923051 13.67360939 14.54387841
H 12.06387561 8.74521237 10.07726145
H 13.40037247 8.73909215 10.85500062
H 13.41973471 8.77036181 15.33810046
H 12.97082851 10.02693348 14.55959826
H 8.18482366 12.12320608 16.76524045
H 9.52311566 12.13073436 15.98921342
H 9.55129282 12.09539983 13.08887942
H 9.09841775 10.83145927 12.32059708
H 11.29598336 12.38754004 10.07639527
H 9.95864940 12.37154310 10.85225517
H 9.91302462 8.48687269 9.28976603
H 9.90450499 8.47954407 10.83635054
H 13.80606995 8.46140489 13.09100673
H 14.25107480 7.19703590 12.32103305
H 13.81395690 8.47843254 17.58183951
H 15.15450216 8.48728368 16.81006026
H 14.27770056 13.67366343 16.79646279
H 15.17452927 12.41354536 16.79506488
H 9.09536480 10.01756620 16.76541669
H 9.54218159 8.75052046 16.00083824
H 1.76139985 8.73066637 11.51539623
H 0.41686966 8.73861688 12.28142364
H 4.30295273 12.14361028 10.08810081
H 5.64417062 12.13581052 10.86062548
H 6.07460870 12.38513475 13.10166359
H 7.40952843 12.38347081 12.32048070
H 4.30426550 12.13480434 14.56775745
H 5.63852777 12.13033189 15.34738087
H 2.14936324 8.45199433 13.76423005
H 2.60115157 7.19260386 14.53658407
H 2.14202085 12.38246592 15.32876667
H 2.14765613 12.38832621 13.78175215
H 5.21925431 10.03341266 10.05095283
H 5.66899927 8.77366968 9.27558426
H 5.17485416 10.02445979 14.55783456
H 4.27956480 8.76364423 14.56031523
H 1.77576446 12.09822593 17.58234701
H 1.31888109 10.83785788 16.81346774
H 1.33930767 10.84356834 12.28798309
H 1.78208948 12.11035894 11.51943832
H 2.60357216 13.68803559 10.05452781
H 2.16362495 12.42827883 9.27343280
H 2.64858993 7.19365220 10.07232077
H 3.54027518 8.45826603 10.07199116
H 6.01264126 8.48257392 13.08998560
H 6.02997135 8.48870484 11.54355883
H 6.05840120 8.47197633 16.00380353
H 7.40246869 8.47304886 16.76815078
H 6.47936304 13.66987500 16.81610806
H 6.04186939 12.40411286 17.58867601
H 1.77858068 8.72843596 17.56914689
H 1.76916524 8.72993518 16.02249818
