384

O 9.07595982 1.75632692 12.31783196
O 12.97014605 4.49562963 10.05886946
O 14.26863447 5.41148743 12.30253970
O 12.97291641 4.51456657 14.54984082
O 10.37865802 0.85475120 14.55416748
O 10.38236109 5.41621079 14.56236035
O 12.95719331 1.75768815 10.05954795
O 12.96626266 1.77297995 14.54061114
O 9.07823655 4.50856921 16.79568512
O 9.08562473 4.49782227 12.32304532
O 10.37965118 5.40190767 10.07748011
O 10.36852172 0.84436222 10.07207009
O 14.26000986 0.85714937 12.30399866
O 14.27034596 0.86199558 16.77702319
O 14.27892367 5.42176296 16.78912489
O 9.07951987 1.76630778 16.79447223
O 9.08580970 9.06489214 3.33897983
O 12.97907537 11.81540016 1.07235065
O 14.27339162 12.71698605 3.31316832
O 12.97852377 11.81354469 5.56349080
O 10.37709923 8.15123335 5.57730309
O 10.38797803 12.71000752 5.57945083
O 12.96522832 9.07111336 1.09357992
O 12.96451315 9.07252456 5.56557235
O 9.09417126 11.79767607 7.82198383
O 9.10696769 11.80234626 3.32353222
O 10.38974557 12.72008880 1.08261530
O 10.37697095 8.15392033 1.10374844
O 14.25868590 8.15974498 3.33290522
O 14.24587567 8.15962751 7.81462785
O 14.27263933 12.72096549 7.80878083
O 9.09037330 9.05349855 7.82625222
O 1.31718312 9.05581416 3.34461185
O 5.21184371 11.80682151 1.09162409
O 6.51406520 12.71633693 3.33089941
O 5.21325664 11.80796779 5.57728965
O 2.60651317 8.14791401 5.58449405
O 2.61828507 12.71203806 5.57057985
O 5.19848972 9.06364492 1.10993120
O 5.19095889 9.06793086 5.59505272
O 1.32440090 11.79473555 7.81084299
O 1.31803944 11.79631411 3.33465133
O 2.61779916 12.71307277 1.09167240
O 2.61530167 8.15372575 1.09960686
O 6.49388661 8.16205022 3.35498099
O 6.49165468 8.14871663 7.83198105
O 6.50774492 12.70757493 7.82042986
O 1.30895774 9.05683775 7.82183548
O 1.31705449 1.76497096 3.33279456
O 5.20855708 4.50844569 1.10140269
O 6.50390790 5.41358078 3.34689587
O 5.20669800 4.49537284 5.58058439
O 2.60592013 0.85658947 5.57723191
O 2.62456617 5.40629265 5.58976662
O 5.20362356 1.76585534 1.10277944
O 5.20017264 1.75524062 5.58840545
O 1.32260134 4.49808775 7.83395760
O 1.32585326 4.50549002 3.33911388
O 2.62133377 5.41431239 1.09794352
O 2.61199907 0.85618012 1.09006684
O 6.49155064 0.85727074 3.34820640
O 6.50284486 0.85295870 7.82763539
O 6.49669482 5.40576255 7.82469741
O 1.31066304 1.75859741 7.82530725
O 9.08751543 1.75747820 3.33494053
O 12.97278274 4.51305311 1.08074202
O 14.26912741 5.42082933 3.32970497
O 12.97429612 4.50764041 5.57414659
O 10.37309964 0.85161445 5.58272283
O 10.38513669 5.40651748 5.58915144
O 12.96986680 1.76591801 1.06796524
O 12.95809315 1.76370337 5.56463166
O 9.08741133 4.50949506 7.83486534
O 9.09295853 4.49979206 3.34091037
O 10.38038147 5.41237207 1.09674944
O 10.38237398 0.85945289 1.08858544
O 14.25923298 0.86132568 3.31618609
O 14.25133957 0.85642283 7.81517146
O 14.26629446 5.41437863 7.82040642
O 9.08805973 1.76759203 7.83079326
O 1.32180459 1.75246125 12.30558686
O 5.21018252 4.49841064 10.06950871
O 6.50101554 5.41148309 12.31319636
O 5.20905229 4.50099339 14.55420512
O 2.62294746 0.83788092 14.54132634
O 2.61791515 5.40387517 14.53991072
O 5.19569150 1.76187832 10.06624071
O 5.19917674 1.76310604 14.55822756
O 1.33347483 4.50208846 16.79013016
O 1.31900539 4.49527004 12.30020454
O 2.62318961 5.41079397 10.06827246
O 2.61142435 0.83667630 10.05951107
O 6.48458470 0.84918592 12.31402938
O 6.48857314 0.86347223 16.79861688
O 6.49689825 5.42029534 16.79967908
O 1.32504511 1.75833036 16.78245043
O 9.08116840 9.05296283 12.31429503
O 12.97962387 11.80988237 10.05345905
O 14.25149358 12.71517599 12.30126454
O 12.96762433 11.80985308 14.55451806
O 10.38045838 8.16257652 14.55587092
O 10.38364221 12.71569340 14.55432391
O 12.96783929 9.06986051 10.06871822
O 12.96519105 9.06916182 14.55764865
O 9.08131847 11.80773493 16.79489142
O 9.09497351 11.79774613 12.31556128
O 10.38253406 12.70270517 10.06776016
O 10.38074225 8.14855478 10.07249719
O 14.26333316 8.15668234 12.31493832
O 14.26827680 8.16746334 16.79994017
O 14.27767475 12.72334350 16.77376926
O 9.08902472 9.06609911 16.80308172
O 1.31798821 9.05997676 12.31097779
O 5.21286717 11.80375621 10.05883703
O 6.50348405 12.70643540 12.30384471
O 5.21101248 11.80026689 14.55199817
O 2.61644168 8.14692768 14.55397025
O 2.62306093 12.70176679 14.53314126
O 5.19207624 9.06468785 10.06911149
O 5.19835703 9.05849876 14.57510142
O 1.33208992 11.80891492 16.78517204
O 1.31147867 11.80134647 12.29542934
O 2.62324944 12.69921417 10.05890819
O 2.60585003 8.14819906 10.06736333
O 6.48457364 8.15123804 12.31826781
O 6.49808410 8.16138565 16.81922410
O 6.48948450 12.72638592 16.79505578
O 1.32527530 9.06687735 16.79997809
H 9.54135223 1.42502638 11.54243185
H 9.54949304 1.42544313 13.08862117
H 12.05548051 4.79723280 10.06257417
H 12.94418438 3.53289973 10.06123963
H 13.82957674 5.08072638 11.51197117
H 15.17060798 5.07412905 12.28189168
H 13.44476501 4.83761870 13.77486132
H 13.44144020 4.84960895 15.32164108
H 11.29268103 1.15824248 14.55271016
H 10.40286201 14.49404472 14.55316718
H 11.29025598 5.09496010 14.53880999
H 9.94862646 5.08150309 13.77019288
H 13.42421098 1.42590046 9.28535685
H 13.42989214 1.43260057 10.83297923
H 13.42591879 1.47327016 15.33220844
H 12.97678957 2.73606996 14.56248136
H 9.09574649 3.54569607 16.77473014
H 9.54522704 4.81032590 16.00875961
H 9.54217121 4.79726791 11.52940087
H 9.09679409 3.53484577 12.30365119
H 10.37571797 6.36487355 10.05915038
H 9.92116367 5.11033798 9.28187381
H 9.93166169 1.18270007 9.28298406
H 11.27489097 1.16871234 10.04791567
H 13.82425742 1.19788853 13.09273887
H 15.16618381 1.18236562 12.32525772
H 13.80570929 1.15634805 17.56806651
H 14.25750160 14.50086893 16.79082710
H 14.26653788 6.38448602 16.81251657
H 13.81352052 5.12061517 17.57688498
H 9.55069762 1.43604428 17.56692195
H 9.54716859 1.43273766 16.02131797
H 8.17924635 8.73984614 3.32439501
H 9.51425582 8.73081678 2.54337158
H 13.43856262 12.11518526 1.86438646
H 12.98494077 10.85266534 1.09841636
H 13.83470093 12.39425656 4.10728885
H 15.17608980 12.38126004 3.34006317
H 13.41468437 12.14356791 6.35602275
H 12.07303841 12.14140812 5.58849810
H 11.27825121 8.49039189 5.55871485
H 9.94165194 8.47674741 4.78226019
H 10.37244035 13.67275148 5.60173764
H 9.92919876 12.40652953 6.37008233
H 13.40329576 8.74412543 1.88660672
H 12.06228030 8.73711263 1.11620300
H 12.97912855 10.03542416 5.58776655
H 13.41027983 8.76896192 6.36365871
H 9.07176711 10.83483092 7.81905724
H 8.17822641 12.09575001 7.82282237
H 9.55510922 12.10240708 4.12125789
H 9.11046459 10.83939239 3.34783561
H 11.29632439 12.39442151 1.09563056
H 9.96337234 12.38238040 1.87772290
H 10.36408364 7.19107599 1.08115712
H 9.92465923 8.45691368 0.30916224
H 13.82574425 8.49391664 4.12597957
H 15.16546591 8.48388917 3.35287338
H 14.23763497 7.19688013 7.83910490
H 13.79832796 8.46101488 8.61245504
H 15.17579483 12.38721796 7.82717812
H 13.83817668 12.39263556 8.60320269
H 9.51996757 8.72529773 7.02914284
H 8.18580509 8.72400109 7.81202472
H 1.78558006 8.71837531 4.11569434
H 1.78713612 8.72982698 2.56960345
H 5.63951911 12.14246583 0.29630394
H 4.30513819 12.13121435 1.07584475
H 7.41805092 12.38547269 3.30744553
H 6.07577836 12.38660148 2.53916362
H 5.68421957 12.13422845 4.80343937
H 5.68390422 12.13778885 6.35022641
H 3.51828785 8.45859366 5.58700308
H 2.64069045 7.18528241 5.58880391
H 3.52663909 12.39282426 5.59245784
H 2.18633936 12.37597663 6.36316284
H 5.66242584 8.76101487 0.32168266
H 5.21230936 10.02643493 1.08595743
H 5.21081885 10.03084008 5.57196712
H 5.65070886 8.76485880 4.80476758
H 1.78174629 12.09016244 8.60504077
H 1.32707901 10.83157130 7.82952955
H 1.33292030 10.83331705 3.35798403
H 1.78189296 12.09911177 4.12268793
H 2.14928073 12.38784160 0.31559353
H 2.15092099 12.37381359 1.86240189
H 2.17764426 8.49031870 0.31034706
H 3.51933108 8.48586708 1.07898486
H 6.03510820 8.46093765 2.56232781
H 6.48527420 7.19935977 3.33384323
H 6.02601266 8.47804332 8.60819122
H 6.02218043 8.48700887 7.06219035
H 6.49465165 13.67027075 7.84302826
H 6.04519017 12.40750493 8.61053249
H 0.40267074 8.73162777 7.80294991
H 1.74251970 8.72362048 7.02902030
H 1.77042708 1.46867899 4.12899431
H 1.32933965 2.72795867 3.34827582
H 5.64022923 4.83543285 0.30485976
H 4.30514250 4.84259960 1.08390449
H 6.07113289 5.08785019 2.55058112
H 7.40926400 5.08561943 3.32715986
H 5.66734058 4.79215342 4.78829862
H 5.21824222 3.53207723 5.56421755
H 2.59823160 14.49593112 5.59664224
H 2.14701094 1.15375523 6.37005850
H 2.18593280 5.08413578 4.79524234
H 3.52706629 5.07027579 5.56399335
H 5.17746378 2.72865512 1.09997046
H 4.28921259 1.46320100 1.09786441
H 5.63328557 1.42267852 4.79457925
H 4.29406196 1.42973867 5.56704441
H 1.79303696 4.82275892 7.05908642
H 1.79329429 4.83055228 8.60574573
H 1.76049067 4.83701515 2.54600945
H 0.42191054 4.83713030 3.31733304
H 2.16722610 5.11136984 0.30454916
H 2.60936159 6.37745730 1.07533894
H 2.60073007 14.49539681 1.10992926
H 2.15583576 1.15549223 1.88385008
H 6.49147062 14.49680474 3.31582594
H 6.03677556 1.16170074 2.55537817
H 6.02729526 1.17331823 7.05357017
H 6.03218707 1.18290357 8.60031751
H 6.04144691 5.10305462 7.03162842
H 6.47618132 6.36858628 7.80824202
H 1.29427640 2.72162022 7.82908578
H 0.39351884 1.46502508 7.81937099
H 8.18053449 1.43462774 3.35690105
H 9.51946358 1.42917854 4.13080312
H 12.95348748 3.55006131 1.07772233
H 12.05542816 4.80631388 1.08622714
H 13.80879045 5.11997279 2.53925723
H 14.25386541 6.38377642 3.31112164
H 13.44930844 4.82966834 6.34754731
H 13.43936030 4.84220160 4.80006620
H 9.94321861 1.18781033 6.37603613
H 11.27752490 1.18313983 5.59275604
H 11.30171463 5.11001489 5.58553495
H 10.40748562 6.36935455 5.58306843
H 13.40656083 1.43863225 1.86168387
H 12.06403172 1.43952348 1.09542063
H 12.97634149 2.72648084 5.54695288
H 13.41888594 1.46389153 4.77386744
H 8.18270328 4.83911159 7.80878607
H 9.52589886 4.83480370 7.04123331
H 9.55062644 4.80151839 4.13293418
H 9.10295068 3.53706539 3.36502167
H 9.91440591 5.08261217 1.87258622
H 9.90810702 5.08323166 0.32492770
H 9.92388942 1.15508197 1.88238788
H 10.37277942 14.49840719 1.10626473
H 14.28739234 14.50077515 3.31511812
H 15.17379659 1.16353705 3.32451822
H 14.24903650 14.49555528 7.79304623
H 13.79657905 1.15381600 7.02027212
H 15.17278827 5.09104417 7.84951168
H 13.82485755 5.07713211 8.60732499
H 9.06179708 2.73050539 7.83047129
H 8.17280601 1.46673341 7.82627945
H 1.79404278 1.41980249 13.07613909
H 1.78754878 1.42376753 11.52943630
H 4.30620769 4.83089574 10.05553001
H 5.63993985 4.82631777 9.27245003
H 7.40500702 5.07881976 12.29844439
H 6.06976461 5.08212487 11.51766668
H 4.30438776 4.83071834 14.53324744
H 5.64316789 4.82579191 13.75831369
H 2.18261411 1.16510197 15.33294244
H 3.52536635 1.17422666 14.56710209
H 2.60707602 6.36665209 14.56575757
H 2.16426566 5.10117279 15.33391699
H 5.64905941 1.46180728 10.86115541
H 5.20895188 2.72491574 10.08749612
H 5.65617717 1.47144309 15.35448861
H 5.20843491 2.72638663 14.57025426
H 1.30905643 3.53909117 16.78867732
H 0.41858961 4.80272235 16.79371867
H 1.33649401 3.53252548 12.32004905
H 1.77506018 4.79701853 13.09314022
H 2.16436929 5.10660267 10.85857586
H 2.60417016 6.37350438 10.08797671
H 2.17077152 1.16858776 9.27002289
H 3.51374592 1.17250880 10.03879076
H 6.05210667 1.17660654 13.11008992
H 7.38888490 1.17978571 12.33424337
H 7.39534623 1.18700378 16.81871903
H 6.05516196 1.19176469 17.59363198
H 7.40000416 5.08534869 16.77846485
H 6.06249782 5.09444721 16.00438358
H 0.41973302 1.42887913 16.79952295
H 1.75330682 1.42939381 17.57995420
H 9.51427153 8.72497939 11.51903174
H 8.17524741 8.72700694 12.29574444
H 13.40627149 12.14486398 10.84963529
H 12.07302316 12.13483021 10.06929164
H 14.24939669 13.67807820 12.32607851
H 13.79748956 12.41615553 13.09620418
H 12.94759937 10.84663319 14.54989145
H 12.05064970 12.10506756 14.55353635
H 9.91882041 8.45405816 13.76208121
H 10.36956457 7.19953069 14.54302563
H 9.90836689 12.39366117 15.32740446
H 9.91814953 12.38203944 13.77972399
H 12.98059524 10.03295704 10.08683440
H 13.42562160 8.77127626 10.86154827
H 13.40489234 8.73615489 13.76816346
H 12.06132422 8.73700910 14.53294640
H 9.52223964 12.13814961 17.58496225
H 8.17933459 12.14371578 16.81592698
H 9.54890335 12.09651969 11.52009827
H 9.10158324 10.83499025 12.29339050
H 10.36672578 13.66539529 10.04514292
H 9.92601704 12.40000512 9.27538830
H 9.94957415 8.47493925 9.27559579
H 11.28313255 8.48473433 10.05795438
H 15.18023430 8.45182369 12.31321716
H 14.28533392 7.19373954 12.30597098
H 13.79612269 8.49473764 17.57294056
H 13.79427188 8.49081923 16.02635636
H 13.80102892 12.39029118 16.00553841
H 13.81538522 12.39070414 17.55044759
H 9.09461097 10.02910037 16.78833176
H 9.54373992 8.77316015 16.00641303
H 1.79219179 8.73414499 13.08322005
H 1.78576936 8.73302099 11.53528612
H 5.65162196 12.13545252 10.84965126
H 4.30638303 12.12878354 10.08531680
H 6.52583709 13.66921088 12.31179868
H 7.41879650 12.40648738 12.30534020
H 5.64942288 12.12322794 13.75772533
H 4.30393701 12.12333009 14.52018394
H 3.52121911 8.47651475 14.58512139
H 2.17479485 8.47934972 15.34262951
H 2.15759343 12.40494284 13.74411950
H 2.61450832 13.66486125 14.51714990
H 5.64038267 8.76065886 10.86535678
H 5.21223652 10.02758706 10.09019183
H 5.21282799 10.02147449 14.58287901
H 5.66077786 8.76631645 15.36763063
H 1.77013744 12.13219867 15.99062194
H 0.42892590 12.14242039 16.75831084
H 0.39526256 12.09638048 12.29847269
H 1.29495557 10.83832294 12.29932535
H 2.60939302 13.66233474 10.07019086
H 2.15578487 12.40508208 10.84773123
H 2.16620343 8.47016615 9.27341597
H 3.50796373 8.48457739 10.04505437
H 6.03454333 8.44513045 13.11704784
H 6.47938436 7.18817487 12.33441372
H 6.51725584 7.19826674 16.81251305
H 7.41456872 8.45692079 16.81152072
H 6.03789727 12.42772792 15.99843637
H 6.47959848 13.68940247 16.77606981
H 0.40817504 8.77210074 16.79906061
H 1.30479604 10.02990515 16.79202304
