384

O 9.09130538 1.76624078 12.29622446
O 12.96847643 4.49668378 10.06455133
O 14.26148701 5.41749036 12.30914440
O 12.96184577 4.51077249 14.55322263
O 10.37091698 0.86146520 14.54843900
O 10.36846193 5.41481223 14.54677559
O 12.96966941 1.75615994 10.05804003
O 12.95737941 1.76666484 14.54703870
O 9.09098184 4.49327426 16.79275229
O 9.08001593 4.51616463 12.29430672
O 10.37847589 5.42302764 10.05700687
O 10.38236426 0.85328988 10.05262254
O 14.26100102 0.86832815 12.30586525
O 14.26389649 0.85994375 16.78620386
O 14.26308183 5.41721859 16.79554674
O 9.08543404 1.75795740 16.79368428
O 9.08266232 9.06250579 3.33217230
O 12.98197891 11.80768540 1.09684565
O 14.26881597 12.71572878 3.34630145
O 12.97430806 11.79049270 5.59100264
O 10.38580690 8.14117955 5.57194561
O 10.38320241 12.70859478 5.57086478
O 12.95861208 9.06961394 1.09140805
O 12.96999377 9.04615343 5.58288608
O 9.09183779 11.80166859 7.82031462
O 9.09431242 11.80528818 3.32696698
O 10.39705151 12.71174728 1.08953484
O 10.37239137 8.15116134 1.09102780
O 14.26375669 8.15642563 3.32953416
O 14.26564423 8.16002808 7.83135843
O 14.26863868 12.71509162 7.82377170
O 9.09539135 9.06356684 7.81578272
O 1.31332911 9.06908297 3.33413232
O 5.21323454 11.79182562 1.09443086
O 6.49893781 12.70705217 3.33371680
O 5.20784300 11.80070797 5.58069388
O 2.61764104 8.14599719 5.57808476
O 2.61672141 12.69860084 5.57806441
O 5.20945081 9.05471563 1.09696175
O 5.21164909 9.05532607 5.58214483
O 1.32372068 11.80636689 7.82191360
O 1.32192387 11.80619172 3.33285504
O 2.62427811 12.71291342 1.09383508
O 2.61485975 8.15367747 1.09136353
O 6.49879713 8.14501909 3.33741785
O 6.50644367 8.14804751 7.82655183
O 6.49820555 12.69996580 7.82541628
O 1.32607195 9.06156486 7.81505875
O 1.31961925 1.75040158 3.34313824
O 5.21162499 4.50694264 1.08730629
O 6.49078462 5.40564921 3.33473138
O 5.20715236 4.49931803 5.58521089
O 2.62749822 0.84139706 5.58071478
O 2.61765284 5.39691773 5.58739490
O 5.20787112 1.76658065 1.09149458
O 5.21609964 1.75442329 5.57585449
O 1.32192237 4.50381578 7.82956689
O 1.32470583 4.48887293 3.34115667
O 2.61666939 5.41321485 1.10076294
O 2.61368946 0.85740646 1.09757440
O 6.50105826 0.84366898 3.32971318
O 6.50349910 0.84569250 7.82422737
O 6.49964356 5.40098603 7.82834884
O 1.34164581 1.75685208 7.82385388
O 9.09171826 1.74708300 3.33112724
O 12.97745605 4.50794614 1.10001322
O 14.27173978 5.41681761 3.34240442
O 12.97964538 4.50595543 5.58298806
O 10.39407535 0.85003120 5.57653125
O 10.38460316 5.40320938 5.56423002
O 12.96196849 1.77328806 1.08633240
O 12.97637506 1.77039798 5.58040345
O 9.09704830 4.50666792 7.81800848
O 9.08162950 4.48765459 3.33519232
O 10.38852143 5.40635693 1.09913292
O 10.38709762 0.84676535 1.09011425
O 14.25485481 0.85489029 3.33332936
O 14.27867035 0.85324281 7.81611766
O 14.26644337 5.41403775 7.83372300
O 9.09360705 1.76693776 7.80792709
O 1.31574142 1.77644764 12.31383040
O 5.19235538 4.50274082 10.06480750
O 6.48263521 5.42160222 12.30760525
O 5.19200162 4.50673728 14.55048154
O 2.60699652 0.85423087 14.54905025
O 2.60227174 5.41375025 14.55870773
O 5.20549128 1.75945521 10.07118959
O 5.19572146 1.76382451 14.54180808
O 1.31543938 4.49645957 16.80731223
O 1.31325697 4.51150477 12.31400089
O 2.60749977 5.41559059 10.07821704
O 2.61596019 0.86064076 10.07783705
O 6.50464713 0.85839672 12.30621102
O 6.48884511 0.85820007 16.78573791
O 6.50369393 5.41333598 16.78356151
O 1.32197898 1.75353458 16.79855951
O 9.07845908 9.06767297 12.30310216
O 12.97001711 11.81498737 10.06825670
O 14.26426224 12.72468817 12.30583496
O 12.96597940 11.80049866 14.55017183
O 10.36754683 8.16016995 14.54646508
O 10.38454860 12.72150133 14.54639174
O 12.97578232 9.07563800 10.07914994
O 12.95442294 9.05733847 14.56026780
O 9.08850771 11.80795015 16.79158984
O 9.08975315 11.80777896 12.29942670
O 10.38133906 12.71316484 10.06014314
O 10.38632946 8.16850977 10.06402527
O 14.26268144 8.16035187 12.32107237
O 14.25644880 8.16210667 16.79175180
O 14.26192021 12.71713693 16.79048607
O 9.07806275 9.06342589 16.79190193
O 1.32180735 9.06676593 12.31476750
O 5.19818865 11.80610536 10.06902549
O 6.50187865 12.72001603 12.30682160
O 5.19992485 11.81495663 14.54904288
O 2.60263245 8.15452826 14.55523788
O 2.60729178 12.71387356 14.56299394
O 5.20125305 9.06240131 10.06124013
O 5.18711659 9.07226306 14.54353721
O 1.31374586 11.79670936 16.80432353
O 1.32199782 11.81263803 12.31360115
O 2.60906876 12.71987897 10.06613271
O 2.61086883 8.16074529 10.07116344
O 6.49148408 8.16194889 12.30881318
O 6.48763931 8.16205574 16.78019432
O 6.49666375 12.71606929 16.79651819
O 1.30883931 9.05405674 16.80165476
H 9.09310901 2.72909107 12.31353248
H 9.54590919 1.47320833 13.09318004
H 12.05496957 4.80140840 10.06543909
H 12.94169842 3.53385940 10.06154988
H 15.16599941 5.08728140 12.28861715
H 13.82444212 5.08359223 11.51858056
H 13.43008988 4.84185397 13.77957926
H 13.43282742 4.83970794 15.32614697
H 11.28514621 1.16521724 14.54574484
H 10.39969016 14.50079486 14.54410501
H 9.93974045 5.07956648 15.34136417
H 11.27423521 5.08775799 14.56262623
H 12.06627394 1.42236842 10.03556685
H 13.40891813 1.43180564 9.26489922
H 13.41638830 1.47318799 13.75269966
H 12.97248897 2.72964347 14.53497656
H 9.54851976 4.78968589 17.58615741
H 9.09952898 3.52991637 16.80798704
H 8.17340381 4.83997491 12.31670634
H 9.51238714 4.84336245 13.09016643
H 10.37766183 6.38601062 10.07878802
H 9.91977138 5.12844179 10.85122332
H 9.92901106 1.15612736 10.84660349
H 10.36683483 14.49247018 10.07430211
H 14.25077776 14.50739165 12.29250795
H 13.80204894 1.15885214 11.51028543
H 14.24901209 14.49912181 16.77373078
H 13.80295201 1.15617123 15.99438376
H 15.16447041 5.07882090 16.81662769
H 13.82657526 5.09397324 17.59078554
H 8.17908824 1.43320654 16.77383516
H 9.51802442 1.42877835 15.99832134
H 9.54090982 8.76743615 2.53801004
H 9.09795994 10.02553178 3.31809786
H 13.41222749 12.13585224 1.89338191
H 12.07647125 12.13666394 1.11468592
H 14.25006868 13.67858554 3.36521043
H 13.81036511 12.41107126 4.13631502
H 12.05916453 12.08997384 5.58295496
H 12.95128360 10.82751236 5.58159418
H 9.92352586 8.44732279 4.78457091
H 10.36568988 7.17822438 5.54910364
H 9.92728754 12.41207510 6.36554898
H 10.38330138 13.67161030 5.59447923
H 12.97243428 10.03277022 1.07717576
H 13.41698958 8.77295040 0.29830091
H 13.40621989 8.72564730 4.78630401
H 12.06672755 8.71201151 5.55813366
H 9.07794128 10.83849563 7.81622092
H 8.17403005 12.09313414 7.81739852
H 8.18834857 12.13102420 3.34999202
H 9.52769751 12.13446618 4.12193952
H 10.38338284 13.67481136 1.10592062
H 9.93302622 12.41475647 1.87956588
H 11.27644718 8.48309905 1.06886548
H 9.93728682 8.47815671 0.29634210
H 15.16588324 8.49380580 3.31058171
H 13.82763108 8.48591773 2.53649111
H 14.25430183 7.19712555 7.81523791
H 13.80525670 8.45283536 7.03729765
H 13.80042397 12.37747923 7.05240886
H 13.79657718 12.39045101 8.59800456
H 9.56291190 8.72533672 7.04509679
H 9.56528779 8.74167041 8.59254590
H 1.77584140 8.76952942 2.54457818
H 1.32793767 10.03213264 3.31643705
H 5.64518918 12.12363456 1.88905192
H 4.30858312 12.12158381 1.11131150
H 6.48980673 13.67012849 3.34896510
H 6.04160445 12.41020394 4.12744194
H 5.19002938 10.83780666 5.57630545
H 4.29037393 12.09398927 5.58078497
H 2.14715279 8.47795606 4.80649562
H 2.14950172 8.47965741 6.35125886
H 2.15898088 12.40355413 6.37281293
H 2.61130603 13.66153919 5.59864411
H 5.21376772 10.01789687 1.08044576
H 5.66077761 8.76144723 0.29853262
H 5.64381466 8.72789657 4.78600192
H 4.30756224 8.72409622 5.56422069
H 1.75868927 12.13824010 8.61467682
H 0.41811923 12.13344709 7.84255383
H 1.76040253 12.13012124 4.12709074
H 0.41877401 12.14000521 3.35945537
H 2.15682761 12.37714835 0.32153502
H 2.15039742 12.38942686 1.86730419
H 3.53171061 8.44777562 1.09343397
H 2.63103362 7.19060866 1.09987861
H 7.40251925 8.47807662 3.31846380
H 6.06617813 8.47473102 2.54230080
H 6.07025977 8.47898483 7.03422511
H 7.41191507 8.47510102 7.80307631
H 6.03956006 12.40418816 7.03160005
H 6.49463636 13.66271886 7.80475362
H 0.41075774 8.76128411 7.82186498
H 1.30173903 10.02429295 7.82353214
H 0.41334344 1.42619308 3.31771143
H 1.75507091 1.42332422 2.54850143
H 5.64091478 4.83493429 1.88502701
H 4.30626736 4.83464058 1.10599102
H 6.49142646 6.36878678 3.35418874
H 6.03466333 5.11092708 4.12997379
H 4.28997455 4.79369648 5.58870833
H 5.18884666 3.53645840 5.57734738
H 2.14917969 1.16544013 4.81027510
H 2.16737331 1.17839871 6.35699613
H 2.15634127 5.10629348 6.38156357
H 2.60561895 6.35981896 5.59897614
H 4.29238922 1.46767626 1.09516754
H 5.18477230 2.72966452 1.09340738
H 4.31233728 1.42211408 5.55710068
H 5.64928809 1.42840828 4.77987749
H 0.41490484 4.82704786 7.85134941
H 1.75586294 4.83784706 8.62172058
H 1.33369092 3.52575494 3.35757923
H 1.78258219 4.78438545 4.13496136
H 2.14830498 5.08186002 0.32714036
H 2.15027601 5.07819706 1.87379913
H 2.15537304 1.15332425 0.30338345
H 2.60864695 14.49663643 1.07564360
H 7.40876685 1.16492302 3.31106813
H 6.06785581 1.18044087 2.53824023
H 7.40602846 1.18077026 7.80222025
H 6.06738932 1.17373000 7.03067071
H 6.04340207 5.09961482 7.03514354
H 6.49059352 6.36353581 7.80379984
H 1.34433145 2.71956498 7.84673233
H 1.79342922 1.46121457 8.62180060
H 9.56229075 1.42140504 4.10587603
H 9.56355908 1.41897206 2.55829174
H 13.41389835 4.83786744 1.89267814
H 12.07185370 4.83550197 1.12268907
H 14.30104777 6.37964634 3.33442238
H 15.18447107 5.10960493 3.34194284
H 12.07286639 4.82890590 5.55425593
H 13.41989823 4.83944791 4.79377648
H 9.95474900 1.18736524 6.36484479
H 11.29705144 1.18456458 5.60025510
H 9.91100790 5.06282726 4.79765152
H 9.91998845 5.07998962 6.34357709
H 13.42417878 1.47470576 0.29630502
H 12.98099263 2.73644267 1.07410445
H 13.44311611 1.46943262 6.36716049
H 12.98968439 2.73348921 5.59889089
H 8.19084548 4.83176861 7.83846942
H 9.53017053 4.84435238 8.60965504
H 9.06612126 3.52456401 3.32768549
H 8.16522074 4.78302636 3.33383223
H 9.92377451 5.10854482 1.88794187
H 10.37014236 6.36926348 1.11105193
H 11.28821343 1.18658943 1.06414342
H 9.94427744 1.17045717 0.29855704
H 13.78496153 1.18455084 2.56032566
H 13.79219607 1.19311283 4.10743815
H 15.19550798 1.14705606 7.82326686
H 14.29511362 14.49227997 7.81250152
H 13.80220023 5.08715983 7.05589544
H 13.79105505 5.07955754 8.60190202
H 9.54217178 1.46233862 8.60396724
H 9.10540463 2.72985454 7.83482244
H 0.40134449 1.47378191 12.30897387
H 1.28976409 2.73932414 12.31605368
H 5.65382944 4.80182554 9.27383125
H 5.21049524 3.53996570 10.04768643
H 6.01657769 5.09091620 11.53224505
H 6.01443060 5.08517253 13.07890356
H 5.20530485 3.54365094 14.56724816
H 5.65929089 4.80288108 15.33898967
H 2.16883090 1.19184887 13.76050643
H 3.51333304 1.17919822 14.52482156
H 2.62416626 6.37683197 14.55706774
H 3.51790823 5.11510870 14.55988781
H 5.68173821 1.43176098 10.84188852
H 5.66980217 1.42727129 9.29573102
H 5.67413100 1.43659094 13.77266084
H 5.65786338 1.43038043 15.31845129
H 1.32892060 3.53381036 16.77916383
H 1.76914973 4.80301272 16.01499506
H 1.78833520 4.84166176 11.54356103
H 1.77982269 4.83985279 13.09032644
H 3.52131828 5.11055404 10.06483300
H 2.63535990 6.37814692 10.07365185
H 2.17723359 1.19189200 10.86869786
H 3.52172450 1.18722560 10.10114475
H 6.52377646 14.49752831 12.30438183
H 7.42028623 1.15712215 12.30492867
H 6.03472694 1.16475750 17.57808259
H 6.47957624 14.49786463 16.81675700
H 6.06934359 5.09026382 17.58025029
H 7.40685683 5.07965803 16.80580120
H 1.75752168 1.42757232 16.00362136
H 0.41525316 1.42943066 16.77148763
H 9.51290115 8.73685401 13.09656987
H 8.17433282 8.73557686 12.32342134
H 12.95472393 10.85186497 10.07116902
H 12.05233993 12.10812342 10.06388924
H 13.79909328 12.39059749 13.07981341
H 13.79153392 12.39435633 11.53414080
H 13.42426950 12.10099046 15.34232856
H 12.97622603 10.83760597 14.57436447
H 10.38882533 7.19735694 14.54971582
H 11.28449410 8.45603683 14.55189716
H 11.28714871 12.38540340 14.52815382
H 9.94885015 12.39251032 13.75324462
H 13.44758702 8.74349915 10.85033393
H 13.44009685 8.74424239 9.30316445
H 13.42555031 8.72849114 15.33401366
H 13.42992176 8.73177616 13.78853955
H 9.56286725 12.13568932 17.56292168
H 9.55495029 12.13852704 16.01669577
H 8.17464276 12.10818854 12.30707298
H 9.06271895 10.84470607 12.30543726
H 9.91147446 12.38418482 9.28616663
H 9.90998182 12.38124755 10.83208946
H 11.29075624 8.49788834 10.09296581
H 9.94313120 8.49804969 10.85316612
H 14.28391835 7.19745686 12.31497190
H 15.17817343 8.45935743 12.31832426
H 15.17323237 8.45835947 16.79995442
H 14.27841163 7.19921556 16.80072079
H 13.83055906 12.39528175 17.58917396
H 15.16623453 12.38609550 16.81015457
H 9.08988901 10.02636197 16.77278140
H 9.53481610 8.76578059 15.99777761
H 1.77442488 8.77111309 11.51753493
H 1.32610567 10.02978282 12.29423749
H 5.21311317 10.84336383 10.04836690
H 5.65707912 12.10560717 9.27671312
H 6.02696148 12.39888685 13.08059619
H 6.03173649 12.39035668 11.53350400
H 5.63800032 12.14228948 15.34160770
H 4.29539256 12.14513059 14.57384037
H 2.16818183 8.48340903 13.76056899
H 3.50450127 8.49195933 14.53611655
H 2.59653216 13.67676367 14.53887825
H 2.15522572 12.41474498 13.76666452
H 5.67607745 8.72991212 9.29224616
H 5.66564341 8.73501987 10.83904390
H 5.64562066 8.77025350 15.33500146
H 5.20019501 10.03514902 14.56686939
H 1.32811602 10.83399718 16.78095638
H 1.76973329 12.10064801 16.01212424
H 1.75809685 12.14363260 11.52118648
H 0.41592631 12.13808079 12.28961671
H 2.63870650 13.68247363 10.07359208
H 3.52256922 12.41422008 10.06524869
H 3.51692825 8.48653180 10.04747268
H 2.17725911 8.48444907 9.27459451
H 6.02831638 8.46774096 13.09616602
H 6.46836866 7.19915502 12.32892387
H 6.51273049 7.19941819 16.78395953
H 7.40305866 8.46176155 16.78240770
H 6.06664878 12.37846430 17.58931082
H 7.40340115 12.39178820 16.81211926
H 1.78485703 8.72645266 17.57242681
H 1.77582688 8.72635717 16.02557283
