384

O 9.07430155 1.76681626 12.30174766
O 12.97624921 4.50651637 10.04996129
O 14.26629212 5.42210445 12.29177576
O 12.96266976 4.51666404 14.53432771
O 10.36870753 0.86051155 14.55230991
O 10.37263689 5.41882356 14.54163922
O 12.96936563 1.76232128 10.06095430
O 12.95329830 1.77144988 14.54078541
O 9.07456516 4.50064404 16.78427103
O 9.09643418 4.50787529 12.29126579
O 10.38842438 5.41189887 10.04495825
O 10.37839256 0.84792496 10.06297879
O 14.25883338 0.86316380 12.31066967
O 14.24434734 0.86066354 16.78643894
O 14.26413487 5.41245057 16.77656178
O 9.07033005 1.75969883 16.79240444
O 9.08191969 9.06227905 3.34037936
O 12.96770249 11.80884850 1.09299519
O 14.27208169 12.70130094 3.32674766
O 12.98065237 11.79677194 5.58007152
O 10.38279073 8.14597094 5.57738030
O 10.39279993 12.69689878 5.57266513
O 12.94425015 9.06630478 1.09535902
O 12.97253217 9.05464959 5.58599140
O 9.11008549 11.79577735 7.82063533
O 9.09244743 11.80296656 3.33534898
O 10.37879383 12.70915780 1.08735500
O 10.36195415 8.14704544 1.09582491
O 14.25265848 8.15515890 3.33604673
O 14.27239338 8.15103601 7.82445562
O 14.27452005 12.70910007 7.82206326
O 9.08975081 9.05575748 7.82100375
O 1.31109652 9.05997784 3.34511275
O 5.20574426 11.80798364 1.10952998
O 6.50217966 12.71202680 3.34012529
O 5.21090771 11.80143543 5.59238454
O 2.61677340 8.15056426 5.58622130
O 2.62647187 12.71502152 5.58317393
O 5.19778392 9.06698628 1.10150856
O 5.20721040 9.06122091 5.58537355
O 1.33375107 11.79956346 7.82482325
O 1.32870106 11.80467121 3.34597587
O 2.61388826 12.72144479 1.09852477
O 2.61180029 8.15583695 1.10184147
O 6.49160052 8.14775438 3.34087939
O 6.49879908 8.14839105 7.82498121
O 6.52171459 12.70972846 7.82751562
O 1.32963490 9.05863732 7.83497780
O 1.30933498 1.76034549 3.33603408
O 5.20267375 4.50246455 1.10729876
O 6.50702665 5.40162487 3.34160594
O 5.21318486 4.49589167 5.58909623
O 2.60667575 0.85119054 5.58094616
O 2.62256010 5.41264611 5.58288971
O 5.18628701 1.76225700 1.09152026
O 5.19572988 1.75473120 5.58501765
O 1.32884656 4.50883625 7.82525830
O 1.32546669 4.50287557 3.33705605
O 2.61687051 5.41627990 1.09558442
O 2.60240462 0.86088532 1.09500940
O 6.48745672 0.85301324 3.33984714
O 6.49265383 0.85233093 7.82939434
O 6.50676437 5.40617451 7.82980148
O 1.31972266 1.76893619 7.83151029
O 9.08527897 1.75675258 3.34467107
O 12.97274327 4.50088919 1.07666192
O 14.27082007 5.41103676 3.31775453
O 12.98128194 4.48967156 5.56005207
O 10.38111681 0.83692975 5.58223878
O 10.39597950 5.40078586 5.55875440
O 12.95201516 1.75713373 1.09123333
O 12.97428735 1.74538413 5.57375104
O 9.09886525 4.49419015 7.80380760
O 9.09153397 4.49627958 3.32413817
O 10.37937040 5.40942050 1.07889603
O 10.37145858 0.84835817 1.09010114
O 14.25910432 0.84569139 3.32098126
O 14.26437243 0.84993280 7.82358748
O 14.27270195 5.40820864 7.80453251
O 9.08410643 1.75084123 7.81789829
O 1.31275160 1.76821004 12.31240920
O 5.20945861 4.50701135 10.06739365
O 6.50342549 5.40616334 12.30726982
O 5.20202481 4.50476346 14.54680281
O 2.60591349 0.85922599 14.56415281
O 2.61950776 5.41974282 14.55291319
O 5.19812850 1.76781624 10.06795733
O 5.19043031 1.76672130 14.54716904
O 1.32217569 4.50766711 16.79291758
O 1.32637843 4.51390321 12.31181850
O 2.62644433 5.41831068 10.06772843
O 2.61204119 0.85652923 10.07451907
O 6.48844699 0.85922157 12.30353491
O 6.48375033 0.85512449 16.78969946
O 6.48240512 5.41465158 16.80202683
O 1.30086781 1.76747710 16.79886420
O 9.08457386 9.06295154 12.30998844
O 12.98762293 11.80582321 10.07101266
O 14.27083643 12.72737958 12.31862205
O 12.96394426 11.81094251 14.55030971
O 10.37688643 8.16380703 14.56190043
O 10.37434210 12.71787119 14.54936007
O 12.97564953 9.06435951 10.06069940
O 12.95987553 9.06977605 14.55979722
O 9.07613617 11.80059045 16.79259002
O 9.09277552 11.80257986 12.29893334
O 10.39865919 12.70535075 10.05980858
O 10.38422864 8.15532456 10.06304281
O 14.25800995 8.16653113 12.31338566
O 14.25088981 8.16082309 16.79459401
O 14.26575572 12.72435659 16.79426020
O 9.07337360 9.06043467 16.79522208
O 1.31702481 9.07457385 12.32238629
O 5.20923590 11.79964568 10.06015918
O 6.50168327 12.71425689 12.29821898
O 5.21598316 11.81132684 14.55072243
O 2.60814696 8.15913366 14.56895697
O 2.62640384 12.71946147 14.56159973
O 5.21219085 9.06007559 10.07167146
O 5.19297995 9.07020212 14.55613274
O 1.31554393 11.81313955 16.79211857
O 1.33352942 11.82037244 12.31507344
O 2.62177205 12.71646604 10.06448554
O 2.61891233 8.16016059 10.08556309
O 6.49366527 8.15158357 12.31816639
O 6.48204702 8.15855777 16.79625677
O 6.49821807 12.71197899 16.79891411
O 1.30458602 9.06542813 16.81107441
H 9.09338693 2.72976923 12.31843391
H 9.53245935 1.46700553 13.09395579
H 12.98562938 3.54354792 10.07062262
H 13.43500181 4.80466826 10.84261706
H 15.17192919 5.09558041 12.31573751
H 13.83053774 5.09546968 13.08603398
H 13.42446766 4.81273154 15.32617965
H 12.97151254 3.55362139 14.55311514
H 10.38769362 14.49974047 14.54846737
H 11.28537100 1.15616596 14.54486046
H 11.27706147 5.08797481 14.56100785
H 9.93602596 5.08360277 15.33182170
H 12.06371204 1.43528771 10.08008662
H 13.40244150 1.43014463 10.85443145
H 13.42987597 1.44563860 13.76952052
H 13.41952649 1.44020851 15.31572308
H 9.05046832 3.53780485 16.78909134
H 8.15998934 4.80149403 16.78715184
H 8.19074480 4.83511844 12.30885987
H 9.52671012 4.84020581 13.08632496
H 11.29321127 5.08207144 10.06505466
H 9.95463585 5.08024086 10.83831825
H 9.90733493 1.17956776 10.83469152
H 9.90933123 1.17812734 9.28915407
H 14.28244447 14.50220422 12.31366246
H 15.17427340 1.16276462 12.30760701
H 14.24250683 14.49973993 16.80474690
H 13.78540384 1.15382514 17.58067260
H 13.82975927 5.08323701 17.57059905
H 15.17058138 5.08820749 16.79997970
H 9.54134883 1.43386863 17.56660046
H 9.54397179 1.43373131 16.01948964
H 9.09752550 10.02503872 3.35936990
H 9.53554543 8.75928126 4.13404645
H 13.43803111 12.13692671 0.31945367
H 13.44601100 12.12935779 1.86559811
H 15.18903389 12.40616674 3.33900618
H 14.29181901 13.66421032 3.32861252
H 13.41583811 12.12034035 4.78433900
H 12.07585144 12.12655152 5.55530836
H 9.92811588 8.43570082 6.37539990
H 10.37860288 7.18281765 5.58856253
H 9.93094195 12.40250713 4.78010258
H 10.37725135 13.66015582 5.55908056
H 12.96268996 10.02903437 1.07191773
H 13.40471102 8.76256826 0.30597934
H 12.05696601 8.75538016 5.58675626
H 12.95182565 10.01767406 5.58353532
H 8.20626088 12.12835714 7.80483958
H 9.54077300 12.11876577 7.02185403
H 8.18625216 12.12872019 3.31485723
H 9.52644735 12.13059229 2.54032331
H 10.39794618 13.67234463 1.08846928
H 11.29601708 12.41491604 1.09384942
H 11.26486019 8.48223456 1.11302089
H 9.92913942 8.47407062 1.89176813
H 13.78302707 8.48201173 4.11104768
H 13.77945363 8.48302672 2.56407568
H 13.80389971 8.48352417 8.59781136
H 13.79984792 8.48166778 7.05286408
H 13.81851759 12.41323399 7.02703391
H 14.26651183 13.67198972 7.80472108
H 9.54410365 8.75761177 8.61618670
H 9.10883348 10.01859633 7.83591502
H 1.29957435 10.02302943 3.34623564
H 0.39244942 8.77141328 3.34030665
H 4.29254644 12.11357495 1.09767944
H 5.17632378 10.84518175 1.10269227
H 6.03929637 12.38259237 4.11758503
H 6.02716904 12.37661314 2.57173886
H 5.67488655 12.10076488 6.38136593
H 5.22383390 10.83861969 5.60882105
H 2.15341696 8.44830683 4.79623587
H 2.61139620 7.18751330 5.56680356
H 3.53175852 12.38709253 5.61051085
H 2.18674088 12.38316534 6.37319363
H 5.62699857 8.74089605 0.30352808
H 4.29468789 8.73208530 1.08894019
H 4.30186307 8.73318766 5.56666571
H 5.63845304 8.73266919 4.78917742
H 0.41959642 12.10268184 7.82055751
H 1.30632654 10.83687052 7.82652497
H 1.80286894 12.12841806 4.11931511
H 1.79464335 12.13678848 2.57144072
H 2.59998107 13.68446576 1.07702511
H 2.15781453 12.42101492 0.30555740
H 2.15300966 8.45642249 1.89359883
H 2.60256381 7.19291200 1.12469664
H 6.05750134 8.47641784 2.54644850
H 7.39316700 8.48575734 3.32541784
H 7.40295276 8.47984639 7.80772908
H 6.06552910 8.47870455 7.03079465
H 6.49751006 13.67244339 7.84586585
H 6.06103314 12.40693040 8.61724905
H 0.42547692 8.72739257 7.81228259
H 1.76532045 8.72903728 7.04177292
H 1.76839639 1.46608109 2.54178334
H 1.32375682 2.72316463 3.32204667
H 5.66315099 4.83853350 0.33093837
H 5.68049318 4.82909575 1.87738096
H 6.52370468 6.36459477 3.34313300
H 7.42484586 5.10872636 3.33734667
H 5.67008421 4.79387559 4.79545864
H 5.21784063 3.53287228 5.56683967
H 2.14638462 1.14779813 4.78887899
H 2.59817027 14.49015298 5.56492684
H 2.18853189 5.08323644 6.37712293
H 3.52665882 5.08140275 5.60073780
H 5.65007780 1.46644182 0.30112441
H 5.20540251 2.72541057 1.08077096
H 4.28966820 1.42861637 5.55899642
H 5.63158898 1.42267460 4.79271444
H 1.30614913 3.54599373 7.82786001
H 0.41324380 4.80780514 7.81863866
H 0.42251482 4.83770252 3.35251180
H 1.75953819 4.82970679 4.13200997
H 3.52162092 5.08672229 1.12188422
H 2.17746117 5.08279053 1.88499206
H 3.50754741 1.18997044 1.06869028
H 2.16236010 1.19146616 0.30462903
H 6.48175989 14.49204504 3.32058105
H 6.02932469 1.14921861 2.54643336
H 6.01782974 1.17263180 7.05509222
H 6.02455126 1.18597473 8.60216274
H 6.49530665 6.36889381 7.80484701
H 6.05533095 5.10252712 7.03478038
H 1.78258666 1.43663053 7.05509684
H 1.79262883 1.43685420 8.60204517
H 8.16934543 1.46003844 3.33807050
H 9.06581491 2.71969841 3.33622090
H 13.40462330 4.83537343 1.86981434
H 12.06812147 4.83125068 1.09173780
H 13.81450618 5.10369913 4.10836384
H 14.25086373 6.37370514 3.34157777
H 13.43760252 4.79072152 6.35288851
H 12.99247637 3.52673592 5.58072326
H 9.90912468 1.16722672 6.35440394
H 9.91369909 1.17272712 4.80975702
H 11.29934118 5.06742780 5.58222632
H 9.95696512 5.06839276 6.34895457
H 12.97012128 2.72005923 1.10478806
H 13.41577978 1.45970960 1.88149763
H 13.40751830 1.41618196 6.36820673
H 12.06848098 1.41870682 5.59412127
H 9.53485547 4.82275180 8.59737207
H 8.19632860 4.82941045 7.82506613
H 9.56951153 4.82061529 4.09492113
H 9.55701167 4.82328753 2.54700259
H 10.36091772 6.37227353 1.06231645
H 9.91700539 5.10840997 0.28952777
H 11.27453556 1.18303546 1.11337958
H 9.93481613 1.17483964 1.88388564
H 13.82638613 1.16452394 4.12003830
H 15.16191563 1.18110183 3.34064119
H 13.82657537 1.17871940 8.61608362
H 15.16765079 1.18261042 7.84490891
H 14.26050239 6.37116050 7.82474295
H 13.81463607 5.11065625 8.59778363
H 9.06617114 2.71393792 7.81405554
H 8.16682180 1.45648332 7.82218641
H 1.77863517 1.44198306 13.08952050
H 1.78599267 1.43291452 11.54332311
H 4.30550350 4.83944979 10.04548494
H 5.64520301 4.83312618 9.27240993
H 6.04587539 5.11131435 11.51224849
H 6.48942424 6.36899451 12.29200216
H 5.21017398 3.54161612 14.53255591
H 5.66452831 4.79891579 13.75483360
H 2.60053793 14.49848995 14.58369638
H 2.14001008 1.15725575 15.35262324
H 3.52411288 5.08901729 14.52761987
H 2.18279061 5.08818770 13.76080256
H 5.21010933 2.73092650 10.08526905
H 5.65792144 1.47108593 10.86082619
H 4.28361743 1.44232736 14.57150613
H 5.62578489 1.43350804 15.33893465
H 1.79315791 4.83635859 17.56574783
H 1.79180927 4.83565915 16.01861301
H 1.33492923 3.55110846 12.29028723
H 1.78389003 4.81308489 11.51875157
H 2.16123073 5.12310938 9.27782877
H 2.60886484 6.38134078 10.05804397
H 2.63818287 14.49564426 10.06714006
H 3.52660322 1.15905380 10.07390539
H 6.05053888 1.18484415 13.09709684
H 7.39310719 1.18939966 12.32810677
H 6.50773541 14.49433808 16.79397574
H 7.40017831 1.15200986 16.78947265
H 6.03035817 5.11492230 16.00624009
H 6.47391087 6.37751039 16.77916241
H 0.38365541 1.47409476 16.79837758
H 1.28655892 2.73045527 16.79364895
H 9.09722970 10.02595190 12.32179906
H 9.54282821 8.76980529 13.10450078
H 12.08435084 12.13965503 10.04578688
H 13.42421722 12.13229190 9.27679064
H 13.79891495 12.39440462 13.08943479
H 13.80600300 12.39512144 11.54328833
H 12.94094410 10.84801716 14.55649667
H 12.04818901 12.10917980 14.55419207
H 11.29391479 8.45943510 14.56123480
H 10.39675592 7.20091510 14.55307311
H 9.90728231 12.39251511 13.77268774
H 9.90225107 12.38642778 15.32036789
H 12.05929193 8.76810301 10.06276090
H 12.95742122 10.02749509 10.06332154
H 13.42805208 8.74307177 13.78429473
H 13.43430863 8.74184556 15.33161155
H 9.09096190 10.83762624 16.81296856
H 9.54494193 12.10220138 17.57810737
H 9.53221967 12.12805211 11.50609786
H 8.18961388 12.13591367 12.27462816
H 9.94377691 12.40534699 9.26528605
H 10.37926699 13.66826080 10.04252090
H 10.37870960 7.19207356 10.07424388
H 9.92823444 8.44537884 10.85989646
H 13.80023929 8.46535127 11.52040995
H 14.25287546 7.20393660 12.28822094
H 14.27404696 7.19806387 16.79336438
H 15.16702245 8.45856727 16.80661820
H 13.82583825 12.39417178 16.00387233
H 15.17044915 12.39448180 16.76810399
H 9.55068736 8.73144423 16.02562543
H 9.53622803 8.72899006 17.57204485
H 1.30039088 10.03758812 12.32276370
H 0.39995590 8.78041250 12.31726302
H 5.66289153 12.09947385 10.85509529
H 5.22201336 10.83681004 10.07921568
H 6.05348909 12.41503919 13.09648185
H 6.48609194 13.67701463 12.31726060
H 5.67024351 12.10531895 15.34770080
H 5.21769583 10.84846584 14.57018532
H 2.59979836 7.19619782 14.54109445
H 2.14697208 8.46370637 13.78021859
H 3.53268545 12.39411247 14.53991844
H 2.19475171 12.39911552 13.76246819
H 4.30639898 8.73298755 10.05977474
H 5.64203711 8.72670335 9.27706044
H 4.28804838 8.74025385 14.54091148
H 5.62586957 8.73640619 13.76335156
H 1.78499635 12.10339111 16.00261994
H 1.32696063 10.85011457 16.78302324
H 0.43064908 12.15431423 12.30007379
H 1.76490568 12.14411493 11.51697347
H 2.18717262 12.38406054 9.27170427
H 3.52439474 12.38098082 10.04774837
H 2.14902281 8.49282679 10.85776865
H 2.15100405 8.49121061 9.31165719
H 7.39793736 8.48254895 12.30203270
H 6.06380472 8.48029009 11.52140534
H 6.04843933 8.49294650 16.00396357
H 7.38802165 8.48487075 16.77666385
H 7.40285238 12.38075700 16.82073134
H 6.06362814 12.38577085 17.59361996
H 1.77401412 8.73343244 16.03856096
H 1.77544951 8.73798362 17.58483068
