384

O 9.08380542 1.75766351 12.30274980
O 12.96972388 4.51078668 10.06712682
O 14.26336941 5.41062787 12.31699543
O 12.96885648 4.49259111 14.55920623
O 10.37796886 0.84840253 14.54132490
O 10.38756583 5.40593396 14.53875569
O 12.97611523 1.76842603 10.06647198
O 12.96928587 1.75480962 14.55464620
O 9.10248163 4.50382619 16.79098681
O 9.09209164 4.50066222 12.29180006
O 10.38242398 5.42400041 10.05319918
O 10.38312313 0.85651542 10.05708555
O 14.26345814 0.85366977 12.31013009
O 14.25722536 0.85286040 16.80270280
O 14.27268796 5.40886756 16.79762713
O 9.08265161 1.76489406 16.78670513
O 9.09199722 9.06420588 3.34464979
O 12.97768951 11.80535304 1.09959947
O 14.28158379 12.71976442 3.34214280
O 12.97897698 11.80506753 5.58213483
O 10.37887793 8.15756482 5.58387181
O 10.38814065 12.71016559 5.57413603
O 12.97438865 9.06696440 1.09496575
O 12.97736290 9.06031263 5.58490475
O 9.08878810 11.81174408 7.82057875
O 9.09477882 11.79945907 3.33429382
O 10.38431494 12.70879286 1.09364011
O 10.38849166 8.16739723 1.10103745
O 14.25758064 8.15032166 3.34390884
O 14.27147564 8.16136530 7.83076987
O 14.27226709 12.71321095 7.82805423
O 9.08841271 9.06822688 7.82755329
O 1.31796656 9.05943991 3.33564426
O 5.21851279 11.80941580 1.09220152
O 6.51243666 12.71745661 3.33683969
O 5.21650883 11.80669643 5.57979668
O 2.63042417 8.15218229 5.57444118
O 2.62142695 12.70962400 5.57688020
O 5.20638646 9.06931067 1.09040095
O 5.21516694 9.06526522 5.57739149
O 1.33120004 11.80336736 7.81953220
O 1.32916943 11.80007885 3.33737303
O 2.62484440 12.70313163 1.09269295
O 2.62050481 8.16317238 1.10279438
O 6.50127176 8.15622485 3.33521294
O 6.50121228 8.15098474 7.82073549
O 6.49738465 12.72009089 7.83160763
O 1.32540165 9.06094547 7.81620364
O 1.31578063 1.75661278 3.33650818
O 5.21452356 4.50124128 1.08829362
O 6.50191075 5.41593701 3.32571196
O 5.20667922 4.50022761 5.57328345
O 2.61458416 0.85192686 5.57279302
O 2.62708341 5.41410269 5.57167117
O 5.19851058 1.76013447 1.08722571
O 5.20471787 1.76350665 5.57674747
O 1.32834056 4.50533916 7.81976145
O 1.33733746 4.49685043 3.32886106
O 2.63107878 5.41758254 1.09314589
O 2.61147517 0.84695928 1.09030678
O 6.49129006 0.85306577 3.33291385
O 6.50036153 0.86172555 7.82147373
O 6.49965844 5.41123897 7.81825174
O 1.31634429 1.76236999 7.81765732
O 9.08462781 1.76502127 3.34015227
O 12.97876551 4.50225873 1.09353774
O 14.27773926 5.40238343 3.33807338
O 12.98140354 4.50433718 5.58250359
O 10.38628168 0.84944455 5.58195994
O 10.38788899 5.41654901 5.57986706
O 12.96154597 1.76122415 1.09857939
O 12.96899951 1.76280437 5.58355411
O 9.09173856 4.50034603 7.81975569
O 9.09582328 4.51126032 3.32696354
O 10.39198012 5.42178504 1.08831073
O 10.37247313 0.85644900 1.09378486
O 14.26046884 0.86172079 3.34058443
O 14.26635519 0.84972920 7.82350062
O 14.26713325 5.41885554 7.83241947
O 9.08928306 1.76619615 7.81529403
O 1.31600077 1.76585833 12.30320581
O 5.19600144 4.50987374 10.06687793
O 6.51187028 5.41809724 12.30398090
O 5.21768952 4.50243784 14.54015612
O 2.60911386 0.84852573 14.55333291
O 2.62568716 5.41054844 14.55389803
O 5.20446735 1.76605511 10.06185634
O 5.19910061 1.75643967 14.54100767
O 1.32955884 4.50804773 16.79689361
O 1.32507629 4.50544821 12.31245323
O 2.61356569 5.41626846 10.06393330
O 2.61694364 0.86213469 10.05790458
O 6.49455391 0.85360044 12.30108652
O 6.49805156 0.85742443 16.78563262
O 6.51426982 5.40290860 16.79014311
O 1.31322783 1.76258828 16.79182261
O 9.08227866 9.05876081 12.30570854
O 12.97710062 11.80322354 10.07408351
O 14.27219006 12.71686192 12.31503888
O 12.97856404 11.80473442 14.56175707
O 10.37710952 8.14329208 14.55142657
O 10.38885031 12.71300875 14.54478578
O 12.97992480 9.05777698 10.07364920
O 12.96428348 9.06398554 14.56449826
O 9.10053782 11.79945061 16.79214896
O 9.09535675 11.79833791 12.30619352
O 10.38650700 12.71492548 10.06486531
O 10.38875551 8.16335568 10.06630611
O 14.26667860 8.15367963 12.32325182
O 14.26499340 8.14850425 16.80502223
O 14.27294339 12.70724015 16.81072856
O 9.08905834 9.05451589 16.79571251
O 1.32507933 9.05557558 12.31248379
O 5.20351491 11.80514326 10.07380265
O 6.50477565 12.71274958 12.31036235
O 5.20236038 11.81056805 14.54937937
O 2.62188454 8.15257822 14.55957307
O 2.61205023 12.71368622 14.55411207
O 5.20448478 9.06358677 10.06476499
O 5.20082121 9.07227595 14.55468287
O 1.32679330 11.80017422 16.79864813
O 1.32722141 11.79542887 12.31863118
O 2.61351183 12.71632704 10.06981937
O 2.61565277 8.15319012 10.06453004
O 6.49522511 8.16048561 12.31541117
O 6.49464229 8.14696589 16.79892252
O 6.50623003 12.71838673 16.79110103
O 1.32100706 9.05894834 16.80105295
H 9.06368148 2.72064322 12.29586155
H 8.16753576 1.46053633 12.30293049
H 13.40867828 4.84019269 9.27524928
H 12.06646039 4.84410842 10.04153736
H 13.79377662 5.07517907 13.08791357
H 13.79748313 5.08091689 11.54127210
H 12.98143403 3.52964127 14.57903385
H 13.43289512 4.79488267 15.34689023
H 9.90534827 1.17906316 13.76978378
H 9.91211081 1.17987698 15.31617072
H 11.29231326 5.07584112 14.56159067
H 9.95384798 5.07810061 15.33368230
H 12.94767006 2.73120488 10.06211456
H 12.06221116 1.46471143 10.06325143
H 12.06300239 1.42987075 14.53150886
H 13.40379303 1.43013808 13.75886022
H 8.19723085 4.83317574 16.80902547
H 9.53488400 4.84226590 17.58230189
H 9.53192968 4.82309859 13.08559907
H 8.19121902 4.84113999 12.31660317
H 9.91238569 5.08913774 9.28197984
H 9.91631765 5.09195095 10.82791146
H 10.37787057 14.49579396 10.08163938
H 9.92419171 1.15508730 10.84948007
H 13.82842663 1.18587839 11.51757292
H 15.16768895 1.18490164 12.28988041
H 13.82177039 1.17356202 16.00580381
H 15.16089251 1.18512439 16.77976205
H 14.29081654 6.37183077 16.80157279
H 15.18925050 5.11315389 16.79769883
H 9.10335961 2.72785807 16.80790705
H 9.54037371 1.46092002 17.57764701
H 8.18791335 8.73302148 3.36305130
H 9.52665076 8.73447713 4.13879962
H 13.45184847 12.13374904 0.32777358
H 13.44470771 12.13616568 1.87381848
H 14.26047289 13.68247137 3.36138254
H 13.81699401 12.41627218 4.12938349
H 12.96074275 10.84200766 5.58013984
H 12.06140957 12.09773120 5.57822480
H 10.37173172 7.19473624 5.60828278
H 9.93054469 8.45988800 6.38104735
H 9.91287643 12.38867052 6.34756012
H 9.92097365 12.37790349 4.80010913
H 12.96019231 10.03027008 1.10164009
H 12.05591619 8.77650816 1.09877081
H 12.07246401 8.73140734 5.57089102
H 13.40536980 8.72725169 4.78866750
H 9.52917275 12.14244540 8.61062511
H 8.18524208 12.14413643 7.84548878
H 9.55085753 12.09918583 2.54040359
H 9.10757893 10.83643648 3.31534747
H 11.29096987 12.38436076 1.07578797
H 9.95528078 12.37830041 0.29690851
H 9.91398943 8.48826459 0.32677560
H 9.91720647 8.49337844 1.87503767
H 14.25967626 7.18756562 3.32000221
H 13.80599388 8.44778179 2.54687314
H 15.17778022 8.48665507 7.80467115
H 13.83564329 8.48892571 7.03666103
H 14.26018817 13.67595944 7.80337498
H 13.81491930 12.40963558 7.03672198
H 9.54629761 8.77091490 8.62125597
H 9.09849682 10.03114674 7.84633070
H 1.29852348 10.02253555 3.34370890
H 0.40204115 8.76254882 3.34257363
H 5.68970612 12.13934576 1.86449552
H 5.68523373 12.14099353 0.31761582
H 7.41503291 12.38186050 3.35686381
H 6.07431191 12.38777637 4.12857556
H 4.30118845 12.10612471 5.57650167
H 5.19223823 10.84377764 5.57774685
H 2.16522858 8.44626817 4.78447308
H 2.61910079 7.18893492 5.56124799
H 2.61054700 13.67272615 5.59377903
H 2.16578490 12.41498519 6.37283245
H 4.28808577 8.77844754 1.09907588
H 5.19328196 10.03249289 1.09289839
H 5.64548198 8.73531851 4.78113460
H 4.31190599 8.73054808 5.56066059
H 0.42531482 12.12959068 7.83942093
H 1.76252897 12.12817456 8.61695791
H 0.42772344 12.13992220 3.35420444
H 1.76242155 12.12991252 4.13206102
H 3.53306808 12.38333791 1.11328900
H 2.19218905 12.37049638 1.88630004
H 2.14404162 8.48719455 1.87504651
H 2.14832925 8.48745441 0.32866007
H 6.48982279 7.19339070 3.30784033
H 6.04678208 8.46145461 2.54282386
H 7.40464701 8.48437997 7.80954125
H 6.07125867 8.48184998 7.02495730
H 6.04605824 12.41729978 7.03643579
H 6.48752771 13.68278831 7.80550015
H 1.78769111 8.76423636 7.02551240
H 1.34212028 10.02387671 7.80426388
H 0.39661614 1.46847335 3.33543494
H 1.30559979 2.71978373 3.33038018
H 5.18704648 3.53837164 1.08618386
H 4.30037892 4.80496206 1.08472702
H 6.03125513 5.08558351 4.09802625
H 6.03697310 5.07868680 2.55209927
H 5.66683395 4.80076475 6.36394943
H 5.22032695 3.53720422 5.59093519
H 2.14896924 1.18571013 6.34691192
H 2.13940236 1.17911926 4.80125908
H 2.18809793 5.08557914 6.36309414
H 3.53051904 5.08012898 5.59532085
H 4.29470046 1.42781988 1.10654136
H 5.63259937 1.42918713 1.88074491
H 5.63790928 1.43109292 4.78330322
H 4.29837218 1.43824926 5.55717164
H 1.76146939 4.83617818 8.61383671
H 0.42421091 4.83610681 7.83856662
H 1.80506751 4.82369195 4.10463499
H 1.80737633 4.83121775 2.55768151
H 2.16993033 5.11896602 0.30206855
H 2.61579969 6.38046587 1.07713900
H 2.60258041 14.48626470 1.11192901
H 2.15055670 1.14649028 1.88128481
H 7.40382446 1.16086166 3.33635949
H 6.52485481 14.49239707 3.33743575
H 6.06176511 1.18969340 7.02927462
H 7.40642508 1.18718290 7.79485572
H 6.03945112 5.12029776 8.61214794
H 6.49265575 6.37437411 7.83097885
H 1.77897087 1.46059285 8.60692582
H 1.33059498 2.72512764 7.83943411
H 9.09540001 2.72771686 3.32154515
H 9.54109202 1.46768205 2.54595136
H 12.07574703 4.83647715 1.07558466
H 13.41414605 4.83328434 0.30061019
H 13.84258232 5.07330402 2.54438550
H 15.18472546 5.07973362 3.31390128
H 13.44055524 4.79605842 4.78773121
H 12.98736859 3.54130635 5.56766313
H 9.92779216 1.15631843 4.79251763
H 10.36985478 14.48877737 5.55577227
H 9.95534271 5.07905345 6.37130644
H 11.29366267 5.08974251 5.59630033
H 12.97329536 2.72420064 1.07525082
H 13.41911145 1.46117190 0.30578497
H 12.06546124 1.42965611 5.60372523
H 13.40694540 1.43479253 6.37592514
H 9.07006917 3.53717059 7.81617532
H 8.17658833 4.79990420 7.81579762
H 9.52894054 4.83753677 4.12257016
H 8.19031112 4.83859504 3.34632166
H 9.93453918 5.12117607 1.88099708
H 10.38103210 6.38457432 1.11267225
H 11.28931454 1.15165139 1.09212401
H 10.39261159 14.49572703 1.09458032
H 13.78730397 1.18656855 2.56708620
H 13.78916286 1.18731987 4.11485998
H 13.83374239 1.18252671 8.61694036
H 15.17113880 1.18002946 7.84044514
H 13.81888382 5.11699798 7.03514814
H 14.25786384 6.38173450 7.80893987
H 9.55467305 1.43597410 8.59123737
H 9.56024011 1.43311386 7.04406182
H 1.77913106 1.47217423 11.51163143
H 1.32943899 2.72891410 12.29223077
H 5.21536434 3.54691871 10.07992183
H 5.66337222 4.80787156 10.85432833
H 6.05328615 5.11693631 13.09555578
H 6.49226280 6.38094871 12.32056163
H 5.67334909 4.79350654 15.33711581
H 5.22047575 3.53948912 14.55537919
H 2.15299349 1.15264362 13.76168389
H 2.59318302 14.48751607 14.52911292
H 2.65085289 6.37350718 14.55514928
H 3.54058758 5.10992998 14.54721590
H 5.67813723 1.44301547 9.28792467
H 5.67066138 1.43083713 10.83524357
H 5.63479158 1.42918230 15.33513580
H 4.29377498 1.42861823 14.56347556
H 1.79268187 4.80248885 16.00525828
H 1.33601900 3.54521038 16.77934104
H 0.41949964 4.83220029 12.33349974
H 1.76108937 4.83728690 13.10437060
H 2.18050175 5.09050933 10.85989905
H 3.51823103 5.08548377 10.08398870
H 3.53456298 1.15528161 10.05932879
H 2.63512943 14.50131314 10.06461299
H 6.48522407 14.49260689 12.32146394
H 6.03118399 1.14994994 13.09206539
H 7.39998558 1.19562217 16.80364887
H 6.06309177 1.18323699 17.58073149
H 6.05060064 5.10179931 17.57892241
H 6.49336504 6.36567271 16.80862279
H 1.78043867 1.43085160 17.56570621
H 1.78080052 1.42753586 16.01928325
H 9.54702810 8.76441795 11.51512586
H 9.09713273 10.02177642 12.29411441
H 13.44341336 12.13449000 9.29927536
H 13.44812409 12.13438868 10.84606727
H 14.25970886 13.67987246 12.33189885
H 13.81550601 12.41873410 13.10854922
H 12.98047174 10.84174305 14.57684537
H 13.43674928 12.09569079 15.35697412
H 10.37284840 7.18011744 14.52886869
H 9.91968257 8.44279883 13.75876185
H 11.30555217 12.41810545 14.54884530
H 10.40575742 13.67612727 14.54427844
H 12.98977098 10.02076786 10.05843037
H 13.44088608 8.76545641 9.27978691
H 13.40284547 8.73482202 13.77266160
H 12.06060064 8.73164004 14.53866630
H 9.55426881 12.09726354 15.99658697
H 9.10179412 10.83656053 16.76924016
H 8.19010037 12.12639659 12.32631040
H 9.53102173 12.13097956 13.09810945
H 9.95189574 12.38058002 10.85659694
H 11.29180590 12.38680608 10.08467247
H 11.30669523 8.45493226 10.06659624
H 10.40290709 7.20030184 10.06252813
H 14.24992428 7.19076344 12.30501205
H 13.81134710 8.45351220 11.52900556
H 13.79084995 8.47721702 16.03412640
H 13.79967740 8.48160631 17.58018552
H 15.18993615 12.41234942 16.80339722
H 14.28952491 13.67003121 16.80019951
H 8.18409720 8.72587163 16.77614485
H 9.52419406 8.71589549 16.00589215
H 1.75497958 8.72727503 11.51548077
H 0.42166767 8.72155096 12.29769981
H 5.65556952 12.11207431 9.28054629
H 5.21671680 10.84254320 10.04521146
H 6.03100421 12.38504866 13.08211242
H 6.03778922 12.38114259 11.53580909
H 5.64238725 12.14194951 15.33911242
H 4.29717160 12.13861466 14.57370436
H 3.52342236 8.49203392 14.54248902
H 2.18861131 8.47865276 13.76368263
H 2.14369263 12.38212092 15.32762439
H 2.14685444 12.37415767 13.78157526
H 4.29946701 8.73429964 10.04640672
H 5.63740187 8.73114074 9.27143874
H 5.21514139 10.03533734 14.53849754
H 5.66335934 8.77508535 13.76379856
H 1.33358269 10.83721370 16.81547294
H 1.78964157 12.09419880 17.59048063
H 0.41355066 12.09995789 12.31335611
H 1.29971951 10.83253015 12.31055821
H 3.51754742 12.38433438 10.08519887
H 2.18241639 12.38437169 10.86415005
H 2.60610304 7.19008681 10.04740556
H 2.15916508 8.45087319 9.27066213
H 7.40139754 8.48669505 12.28971879
H 6.06024592 8.48481967 11.51979655
H 6.02840894 8.48222501 17.57248843
H 6.02575992 8.48119417 16.02724992
H 7.41969578 12.41370566 16.78647642
H 6.53355073 13.68124451 16.78913512
H 0.41636655 8.72991806 16.77951901
H 1.75894769 8.72991180 16.00893149
