384

O 9.07062068 1.75576972 12.30316939
O 12.97745782 4.50714014 10.06609225
O 14.26900081 5.41600386 12.30541347
O 12.97935575 4.50646118 14.54940882
O 10.36276348 0.84338232 14.54862539
O 10.39044543 5.40765459 14.54221825
O 12.95539072 1.76632169 10.07651264
O 12.95227497 1.76285247 14.56075485
O 9.10433463 4.49461182 16.79629188
O 9.09395502 4.49692779 12.29837690
O 10.38532359 5.40322004 10.04790636
O 10.36803110 0.84657979 10.06727129
O 14.25028308 0.85996141 12.32281237
O 14.25263947 0.86272109 16.79907520
O 14.27977480 5.41338185 16.79029707
O 9.07798661 1.75446240 16.79445000
O 9.10005813 9.05728926 3.32938148
O 12.97741970 11.80784968 1.08854189
O 14.26585065 12.71484040 3.33477209
O 12.97576623 11.80962874 5.58160878
O 10.38791836 8.14951537 5.58147288
O 10.37798612 12.70099903 5.57817088
O 12.97699608 9.06107202 1.07994393
O 12.97173347 9.07583647 5.58127894
O 9.08264215 11.79470623 7.81921245
O 9.09120407 11.80068309 3.32803021
O 10.38728470 12.71460166 1.08968122
O 10.38649436 8.15665547 1.08332286
O 14.26606571 8.15819820 3.33766780
O 14.26157369 8.15477774 7.82045180
O 14.25701592 12.71928931 7.82852831
O 9.09768560 9.05580308 7.82590285
O 1.32468604 9.05959500 3.34550195
O 5.20664771 11.81304093 1.09105487
O 6.50060536 12.72189623 3.33971307
O 5.19792094 11.81375902 5.57356499
O 2.61574162 8.14847543 5.59060433
O 2.61178770 12.71469546 5.57953718
O 5.21157385 9.06593177 1.08397242
O 5.20213997 9.06865268 5.57274923
O 1.32259814 11.80855302 7.82649967
O 1.31571632 11.79797454 3.33852474
O 2.61495760 12.71298075 1.10116885
O 2.62403382 8.16449901 1.09364443
O 6.50890537 8.16014584 3.33037221
O 6.50124620 8.15935476 7.81666717
O 6.49195758 12.71055625 7.82208188
O 1.32051672 9.06059244 7.83163531
O 1.31243663 1.76557695 3.33580247
O 5.21765248 4.49891859 1.09069689
O 6.50456272 5.41783328 3.32865307
O 5.21493036 4.50508837 5.57517683
O 2.59511393 0.86191319 5.59066067
O 2.62647242 5.41262972 5.59311491
O 5.19241618 1.75880293 1.10007158
O 5.19158932 1.76592032 5.56813228
O 1.32331182 4.50065820 7.82831544
O 1.33884836 4.50709718 3.34297277
O 2.63261811 5.41708366 1.08842934
O 2.60646130 0.84863099 1.09734136
O 6.50152089 0.86098594 3.33877484
O 6.47807211 0.85230565 7.81333052
O 6.50268003 5.41457920 7.81301954
O 1.30191638 1.76317155 7.84353580
O 9.09335520 1.77143271 3.34485325
O 12.99065561 4.50824729 1.09020539
O 14.28014690 5.41997371 3.33866459
O 12.97986492 4.49716039 5.57264764
O 10.36766429 0.84329546 5.58416019
O 10.38587285 5.40777944 5.56766731
O 12.95513019 1.76369647 1.09098363
O 12.95958542 1.75835332 5.58059727
O 9.08874304 4.49035041 7.81315381
O 9.09558265 4.50980658 3.32676484
O 10.40083122 5.41294668 1.09214063
O 10.37047791 0.85752311 1.09973019
O 14.25832808 0.85199428 3.33460455
O 14.24815639 0.85765301 7.83281226
O 14.26657293 5.41018570 7.82198870
O 9.06804698 1.74688548 7.82513971
O 1.30317504 1.75832571 12.32616436
O 5.21019534 4.51152697 10.05313455
O 6.50438846 5.41300217 12.29705821
O 5.21316585 4.51479674 14.54309623
O 2.60603681 0.85513285 14.56585614
O 2.61917185 5.41644051 14.55474070
O 5.19147493 1.76795589 10.05734469
O 5.19151132 1.76750121 14.55118707
O 1.32960997 4.50316676 16.78966578
O 1.32254144 4.50008828 12.31052955
O 2.61747425 5.41318711 10.06858941
O 2.59945414 0.85122610 10.08257331
O 6.47230761 0.86100895 12.30529837
O 6.48971916 0.85677636 16.79469097
O 6.51402302 5.41580471 16.79225513
O 1.31166169 1.76557960 16.80254197
O 9.07870382 9.06479761 12.30232885
O 12.96224007 11.80122517 10.07135436
O 14.26084897 12.71527443 12.31647239
O 12.97531663 11.79784992 14.56047171
O 10.38120972 8.15310439 14.54430521
O 10.38694512 12.70364014 14.54445721
O 12.97148326 9.06086073 10.07072860
O 12.96857150 9.06019154 14.55689334
O 9.09215404 11.80285840 16.78783897
O 9.08212894 11.80908789 12.29989044
O 10.37760658 12.71331593 10.05571854
O 10.38487514 8.14144936 10.06677483
O 14.26852244 8.15803812 12.31282742
O 14.27292619 8.15739766 16.78950371
O 14.26993517 12.72416449 16.79381790
O 9.08650652 9.06069878 16.78678589
O 1.32583398 9.06708784 12.32207255
O 5.20685902 11.80094554 10.06217154
O 6.49285387 12.71376616 12.31181475
O 5.19730190 11.79892257 14.54902926
O 2.63550689 8.15472919 14.56049247
O 2.61381947 12.71609925 14.54894150
O 5.19592758 9.06305079 10.05438554
O 5.21741159 9.06414735 14.54273786
O 1.32286465 11.80959645 16.79608454
O 1.31243554 11.81008765 12.30646357
O 2.61486650 12.70961036 10.06780888
O 2.61086006 8.15331247 10.07631709
O 6.49408770 8.15730069 12.29422273
O 6.50027606 8.15687222 16.78612335
O 6.50064318 12.71370406 16.78888002
O 1.32451647 9.06403363 16.80173875
H 9.52133234 1.45049680 13.09772081
H 9.08757785 2.71856655 12.32723797
H 12.06968416 4.82795369 10.03825563
H 13.41144837 4.83129740 9.26953774
H 14.26130252 6.37903288 12.28930565
H 13.80896327 5.12237308 11.51181193
H 13.44886366 4.83566026 13.77556111
H 13.45208389 4.83159897 15.32295957
H 11.27604043 1.14888860 14.55488493
H 10.39385347 14.48269968 14.54938465
H 11.30825903 5.11557927 14.54364482
H 10.40727136 6.37053069 14.54383343
H 12.97119354 2.72930529 10.09093558
H 13.41390308 1.46805765 10.86905717
H 13.40997092 1.46216304 13.76815386
H 12.96462509 2.72563282 14.53794302
H 9.10644090 3.53176558 16.76917290
H 9.55783149 4.79585552 16.00204662
H 8.19071495 4.83006151 12.32261350
H 9.53457748 4.83103988 13.08700144
H 9.91479471 5.06934234 9.27657365
H 9.91868216 5.07381868 10.82312899
H 9.92789302 1.17492703 10.85897971
H 11.27076825 1.18109230 10.09372999
H 15.16815442 1.15244686 12.32368594
H 14.26935836 14.49907047 12.31830009
H 15.15907111 1.18729933 16.77688731
H 13.81771414 1.18920800 16.00398218
H 14.26839492 6.37640516 16.80912010
H 13.82021140 5.11688085 17.58320185
H 9.50876546 1.41552287 16.00247024
H 8.17018007 1.43267742 16.77516075
H 9.53186340 8.73276869 4.12643724
H 8.19416477 8.73048645 3.34833689
H 12.07385052 12.14081107 1.10706198
H 13.41002055 12.12956927 1.88657898
H 15.17000886 12.38307206 3.35443864
H 13.83301818 12.38983140 4.13131775
H 12.06917283 12.13398155 5.59730833
H 13.40604918 12.14086759 6.37702445
H 9.95502542 8.47895782 6.37619644
H 11.29024861 8.48599311 5.59602849
H 10.35954405 13.66370190 5.55926595
H 9.92850096 12.40054146 4.78100859
H 12.06077331 8.76366959 1.08606472
H 12.95600671 10.02379652 1.08665646
H 13.42688610 8.77349808 4.78847040
H 12.98653172 10.03890122 5.56034392
H 9.53660185 12.09099944 7.02314301
H 9.10000460 10.83186693 7.80653501
H 9.54875110 12.09682422 2.53415770
H 9.10294879 10.83783932 3.31285377
H 10.37110877 13.67750819 1.07379361
H 9.93188181 12.41657606 0.29512391
H 10.38239262 7.19350856 1.10081446
H 9.93074611 8.44843299 1.88030639
H 14.25972802 7.19516320 3.32022135
H 13.81313479 8.45333867 2.54109885
H 13.79539541 8.48147720 8.59722945
H 13.79247854 8.49285564 7.05019953
H 14.28168412 13.68215346 7.83478341
H 15.17149456 12.41811735 7.82911563
H 9.52923487 8.72216902 8.61970262
H 8.19065578 8.73279930 7.84221611
H 0.41896304 8.73304415 3.36534431
H 1.76036787 8.72404396 4.13614507
H 5.64443185 12.14426480 1.88217400
H 4.30118522 12.14016007 1.11643785
H 6.52798633 13.68477383 3.34062114
H 7.41401305 12.41702070 3.33348426
H 5.66817800 12.13388336 6.35088444
H 5.67298288 12.14639271 4.80434670
H 3.52887424 8.45437078 5.58320977
H 2.64526084 7.18568434 5.59315293
H 3.53048380 12.42460117 5.57548092
H 2.62582418 13.67761449 5.58056771
H 4.29330561 8.77437233 1.08997940
H 5.19417543 10.02887824 1.08785477
H 5.66191527 8.76943520 4.78127874
H 5.21203095 10.03145667 5.55139912
H 1.77494358 12.10571327 7.02966996
H 1.32610422 10.84580940 7.80520708
H 1.33280248 10.83510370 3.36410473
H 1.77699515 12.10453595 4.12647861
H 2.14919218 12.38783620 0.32355395
H 2.14389135 12.37688253 1.87096056
H 2.14946659 8.49624547 0.32352992
H 2.15281142 8.48427071 1.87008122
H 6.49345697 7.19727097 3.30946852
H 6.05129044 8.46066539 2.53799114
H 6.03764404 8.49074713 7.04033265
H 6.02565058 8.48987148 8.58623055
H 6.05843983 12.37981839 8.61625058
H 7.39452262 12.37520125 7.83964218
H 0.41356286 8.73762876 7.80625200
H 1.75780392 8.72697745 7.04090518
H 0.40618544 1.44020919 3.31406251
H 1.74716825 1.42686833 2.54579508
H 5.18619235 3.53630975 1.09141322
H 4.30494167 4.80660486 1.08279752
H 6.03456588 5.08708162 4.10137586
H 6.04036539 5.07889201 2.55559530
H 4.30952690 4.83230942 5.60275718
H 5.65352944 4.83946088 6.36502404
H 3.49723303 1.19788163 5.56540386
H 2.15733725 1.18615318 4.79649236
H 2.16354017 5.08328221 4.81540040
H 2.15235554 5.07936731 6.36231632
H 5.66894075 1.43648409 1.87249510
H 5.66066796 1.43128822 0.32503723
H 5.20812580 2.72874451 5.59501819
H 5.64100032 1.45908718 6.36291695
H 1.29833485 3.53777099 7.83575692
H 0.40886933 4.80262547 7.82618186
H 1.79179659 4.81044903 2.54933143
H 1.34324890 3.54429632 3.31427277
H 2.16982004 5.12144954 0.29739471
H 2.62107980 6.37999087 1.07282460
H 3.52237544 1.14631072 1.10249986
H 2.62863871 14.48762702 1.10101004
H 7.40292397 1.19886779 3.36294507
H 6.05973760 1.18942489 4.12949293
H 7.39655360 1.14252132 7.81882079
H 6.49599273 14.49118497 7.81920430
H 6.04377828 5.12095855 8.60764848
H 6.49550247 6.37762427 7.83085471
H 1.77328903 1.42927817 8.61423067
H 1.76874626 1.43671023 7.06701803
H 9.10461613 2.73438505 3.32050298
H 9.54388906 1.46905857 2.54878406
H 12.08525320 4.83597615 1.11330858
H 13.42678335 4.83288299 1.88484069
H 15.18582287 5.09312318 3.35539736
H 13.84660657 5.08403399 4.13014269
H 12.95510006 3.53422398 5.57489527
H 12.06486875 4.79684428 5.56873666
H 9.93361662 1.18333732 4.79397654
H 11.27311356 1.17025782 5.56320628
H 9.93316837 5.10621715 6.36220866
H 10.38496218 6.37066824 5.59574166
H 12.97823967 2.72647178 1.08037874
H 13.41723566 1.46871107 0.29888895
H 13.42607557 1.43205705 6.35719483
H 13.43029765 1.42508942 4.80950628
H 9.06331150 3.52762832 7.81028202
H 8.17463727 4.79303472 7.81036497
H 9.53132215 4.84101745 4.11952328
H 8.19101368 4.83961709 3.34789814
H 9.92633097 5.08415279 1.86308175
H 9.93820537 5.07765969 0.31677921
H 9.93375543 1.18339523 0.30549729
H 11.27545529 1.18701657 1.07386013
H 14.24846454 14.49107440 3.31494674
H 13.79367094 1.15135819 2.54612358
H 13.80902790 1.18503612 8.62511578
H 15.15161863 1.19045359 7.85893548
H 13.81132191 5.11073778 7.02795323
H 14.25746524 6.37311737 7.80103972
H 9.54050575 1.41862921 7.05278689
H 9.53967594 1.42480700 8.60059568
H 1.77583320 1.43378890 13.10025353
H 1.77546564 1.42922261 11.55394240
H 5.64584299 4.83645638 10.84843507
H 4.30435981 4.83774946 10.07850588
H 6.49407980 6.37607306 12.31521554
H 6.04843088 5.11726642 13.09246092
H 5.65072362 4.83939263 15.33691291
H 4.30794478 4.84237048 14.56795087
H 2.63278153 14.49434448 14.56175563
H 3.52007202 1.15905282 14.55938769
H 2.14980803 5.07726209 15.32494069
H 2.15191129 5.08719833 13.77963071
H 5.20156631 2.73075991 10.03705784
H 5.64415652 1.46806796 9.26199791
H 5.20511867 2.73028391 14.53616819
H 5.64446053 1.47342661 13.75352333
H 1.30744534 3.54010414 16.79834603
H 0.41389411 4.80196603 16.79461096
H 1.29723555 3.53733677 12.31702178
H 0.40813488 4.80223149 12.30682630
H 2.14656188 5.07979160 10.83985215
H 2.15122969 5.07975719 9.29434433
H 2.62650432 14.49042191 10.07911473
H 3.51319958 1.15511022 10.07346789
H 6.04158747 1.18597231 11.50732851
H 7.37749320 1.18914486 12.28514595
H 6.47569548 14.49611053 16.77175675
H 6.02739310 1.16016002 16.00605187
H 6.08213746 5.07805261 17.58380766
H 7.41913412 5.08719441 16.80750929
H 1.77736981 1.43278968 17.57717643
H 1.78389836 1.43223995 16.03183330
H 9.54247711 8.75645294 11.51662841
H 9.09514929 10.02736127 12.27539559
H 13.39852872 12.13196686 9.27920230
H 12.05736459 12.13047979 10.04721627
H 15.16429768 12.38169456 12.28912136
H 13.82062304 12.38817068 11.52497577
H 13.44499183 12.13317444 15.33148159
H 13.44134475 12.12642282 13.78433313
H 9.91041472 8.48225590 13.77158909
H 9.90943340 8.47739286 15.31874697
H 11.29139489 12.37407773 14.57215672
H 9.94633417 12.37435105 15.33518838
H 13.43306038 8.76820306 10.86368073
H 12.97435176 10.02393691 10.08934121
H 12.94832761 10.02325537 14.55550686
H 12.05242236 8.76322066 14.54714322
H 9.06719710 10.83986866 16.79145182
H 8.17677364 12.10230266 16.78944476
H 9.55052269 12.13976951 11.52603199
H 9.55957515 12.12732325 13.07338711
H 10.35875443 13.67630561 10.04042273
H 9.91641168 12.41183037 9.26571528
H 10.40594053 7.17846401 10.06032429
H 11.30044958 8.44007800 10.06825351
H 13.83034004 8.48309045 13.10642775
H 15.17428601 8.48374597 12.33960986
H 13.79660876 8.47978705 16.01659028
H 13.80102288 8.48774688 17.56187832
H 14.24945902 13.68685679 16.81614028
H 13.81400872 12.41967035 17.58568932
H 9.52368387 8.73082995 17.57920546
H 8.18275753 8.72789667 16.81020064
H 1.80124628 8.73912677 13.09238955
H 1.78782772 8.73262625 11.54597545
H 5.65833185 12.10092087 10.85817505
H 5.21158052 10.83790468 10.08517349
H 7.41193196 12.42558236 12.30726604
H 6.50405572 13.67669780 12.30753554
H 5.21496471 10.83596318 14.52773807
H 5.65978674 12.10279336 13.76069699
H 2.61507115 7.19171955 14.57840237
H 2.17041928 8.45656935 15.34779433
H 2.17863566 12.38982599 13.75406127
H 3.51581160 12.37824866 14.52904204
H 5.63477958 8.73097436 10.84481604
H 4.29168044 8.73189224 10.07806060
H 4.31251087 8.73399236 14.56545313
H 5.65096564 8.73381488 15.33708359
H 0.42123467 12.14760238 16.77626287
H 1.75956141 12.13655929 16.00246970
H 1.32932641 10.84708375 12.29336889
H 1.77340287 12.10589872 11.51391987
H 2.18231084 12.38562632 9.27025494
H 3.51927155 12.37927679 10.04732714
H 2.15101689 8.45595570 9.28579797
H 2.59801908 7.19041931 10.05073812
H 6.06452425 8.48759568 13.09058324
H 7.39868582 8.48806948 12.30889398
H 6.04289921 8.45848791 17.57856966
H 6.49505669 7.19399427 16.81021846
H 6.02964705 12.39184446 17.56494741
H 6.03044243 12.37865902 16.01813531
H 0.40800518 8.76701422 16.79171737
H 1.30291159 10.02694232 16.79257314
