384

O 9.09139369 1.75645900 12.30918345
O 12.98301850 4.51422636 10.05721386
O 14.27857583 5.42113596 12.30518883
O 12.97699845 4.51413573 14.54480358
O 10.38149606 0.86049967 14.55889641
O 10.38428828 5.41016148 14.55818158
O 12.97082658 1.77497561 10.05930667
O 12.96720680 1.77221466 14.54921818
O 9.08760889 4.49832269 16.80307470
O 9.09677460 4.49775008 12.31482839
O 10.38859948 5.41417163 10.06999693
O 10.38499951 0.85906489 10.05978677
O 14.25351650 0.85830746 12.30087357
O 14.25696508 0.85179684 16.79064674
O 14.26799258 5.41608653 16.79047336
O 9.06148794 1.74888849 16.78977536
O 9.08094326 9.05760627 3.33679690
O 12.96223770 11.79841560 1.09109993
O 14.26546502 12.71399561 3.32859474
O 12.97099772 11.81724922 5.57788815
O 10.38642193 8.15574903 5.57866801
O 10.37936353 12.71096168 5.58318383
O 12.97173233 9.06209843 1.09309052
O 12.97339940 9.07230421 5.58043452
O 9.08417764 11.80790706 7.82270744
O 9.08354575 11.80195113 3.33746209
O 10.37916135 12.71143793 1.09493448
O 10.38508389 8.14947586 1.09560247
O 14.26427434 8.15248360 3.33644411
O 14.26750493 8.16268076 7.82016457
O 14.26954983 12.71821103 7.81518616
O 9.09457915 9.06980169 7.82705785
O 1.31618757 9.06670280 3.33087055
O 5.18719180 11.79936255 1.10077010
O 6.49022046 12.70630404 3.33670236
O 5.20027752 11.79714718 5.58495691
O 2.60983230 8.15749792 5.57661347
O 2.61700685 12.71612794 5.57847082
O 5.19271791 9.06039442 1.10065609
O 5.20376960 9.05413440 5.58304350
O 1.32666654 11.81082597 7.82254196
O 1.32194459 11.80416572 3.33394676
O 2.60051738 12.70630328 1.07900760
O 2.60807157 8.14823998 1.09117004
O 6.48924365 8.14409224 3.33669289
O 6.50207505 8.16192142 7.82663889
O 6.49373159 12.71604067 7.82499952
O 1.32461003 9.06942467 7.82764621
O 1.31763793 1.76140665 3.32957119
O 5.20453633 4.49534094 1.08827214
O 6.49701383 5.39998508 3.33296352
O 5.20905727 4.50012950 5.58354857
O 2.61042800 0.85836786 5.58109753
O 2.62187299 5.41575664 5.58238401
O 5.20241093 1.75105678 1.10223534
O 5.20135875 1.75606869 5.59108981
O 1.32732289 4.50840721 7.82935008
O 1.32806985 4.50659294 3.33282017
O 2.61503944 5.40240825 1.08302791
O 2.60919729 0.84802152 1.09030035
O 6.49166550 0.84784666 3.34545042
O 6.50218482 0.85956518 7.83979615
O 6.50882331 5.41716340 7.82484932
O 1.32150755 1.76378658 7.82554372
O 9.07602334 1.76526249 3.33301956
O 12.97758668 4.49677740 1.08933811
O 14.27479049 5.41170378 3.33702438
O 12.97085805 4.50948988 5.58237640
O 10.37449746 0.84940384 5.57475116
O 10.37621735 5.41055146 5.57647156
O 12.96116560 1.75984002 1.08775908
O 12.96379781 1.76201975 5.57783474
O 9.09838000 4.51257065 7.82519209
O 9.09515160 4.50168665 3.33493206
O 10.39210338 5.41192726 1.09341534
O 10.37433646 0.84913552 1.08774897
O 14.25387410 0.85238377 3.32956382
O 14.26658589 0.85702761 7.81645631
O 14.27582497 5.41708614 7.81441241
O 9.09551304 1.77114344 7.81282581
O 1.31220974 1.76886529 12.30928205
O 5.21127267 4.51263906 10.05888902
O 6.51106076 5.41843021 12.30527940
O 5.20920509 4.50205712 14.54829938
O 2.60756304 0.85193994 14.54841711
O 2.62240084 5.40376266 14.55072153
O 5.20682458 1.76450623 10.08356685
O 5.19247441 1.76010829 14.55541478
O 1.31919988 4.49378179 16.78501668
O 1.32798364 4.50527758 12.30160690
O 2.62578160 5.41908069 10.06089889
O 2.60644373 0.86427984 10.07368797
O 6.49953530 0.84935245 12.32258392
O 6.47898303 0.84062241 16.79962225
O 6.50131948 5.40187430 16.78584724
O 1.31184033 1.75221962 16.79378719
O 9.08774650 9.06797843 12.31127808
O 12.98439341 11.81037736 10.05381339
O 14.26325976 12.71407979 12.30698681
O 12.96709483 11.80029560 14.55664470
O 10.37651447 8.15269714 14.55348341
O 10.37918511 12.71759885 14.55872870
O 12.96844638 9.06467011 10.05974447
O 12.96320781 9.05757674 14.54983534
O 9.08471003 11.79890553 16.79730823
O 9.09966458 11.81376095 12.31051958
O 10.38717627 12.71951791 10.05779103
O 10.37777502 8.15604749 10.07486306
O 14.26498847 8.16229269 12.30394031
O 14.25331665 8.15674688 16.79190894
O 14.25734379 12.71407995 16.79129377
O 9.07299892 9.05368976 16.79985133
O 1.32299355 9.06708624 12.30487430
O 5.21008522 11.80855896 10.07188220
O 6.50550060 12.70915282 12.31470524
O 5.20830550 11.79902732 14.55703241
O 2.61672770 8.14851569 14.54508037
O 2.62569077 12.70737716 14.54733927
O 5.21190043 9.06879795 10.07029018
O 5.19621425 9.06031474 14.55929412
O 1.31348146 11.80215525 16.77595312
O 1.32205130 11.81131638 12.29980813
O 2.62432873 12.72879334 10.06279604
O 2.62966108 8.16156882 10.06583884
O 6.50251672 8.16575420 12.31576052
O 6.48511455 8.14713013 16.80080656
O 6.49475158 12.69795022 16.81131644
O 1.31498764 9.05559161 16.79237640
H 8.18883386 1.42053430 12.29863325
H 9.52080270 1.43196519 11.51069763
H 12.95980484 3.55143181 10.05933091
H 12.06782780 4.81402149 10.06524917
H 15.18179382 5.08703208 12.28420820
H 13.84203591 5.09423157 11.51158289
H 13.44306150 4.84416288 15.32031085
H 13.45035759 4.84248924 13.77307433
H 11.28480927 1.19439910 14.54162351
H 9.94995728 1.18272684 13.76051468
H 11.29211316 5.08962925 14.53158404
H 9.94667104 5.07080095 13.77005732
H 13.44131193 1.44287156 9.28760162
H 13.43426032 1.44175036 10.83520877
H 13.42694279 1.47019153 15.33983087
H 12.98408624 2.73507172 14.56887326
H 9.55902308 4.82539375 16.02963154
H 9.56120814 4.82302407 17.57621829
H 9.06800700 3.53497351 12.30959438
H 8.18319804 4.80261067 12.30727637
H 9.93175056 5.11111283 10.86161704
H 10.37532275 6.37713667 10.09241391
H 9.95315149 1.19078568 9.26551395
H 11.28939047 1.18969735 10.04346804
H 14.24270183 14.49789054 12.32784086
H 13.80255161 1.16332540 13.09548152
H 15.17350491 1.14778689 16.79614409
H 14.27595136 14.49095060 16.78635758
H 13.83407542 5.08115916 17.58234824
H 15.17235697 5.08526301 16.80722912
H 9.52945702 1.45709443 15.99974278
H 9.08270523 2.71162767 16.78168093
H 9.55123764 8.72978171 4.11064051
H 9.55220528 8.72732837 2.56466977
H 12.97849284 10.83532996 1.10792625
H 13.42315595 12.09879244 1.88134159
H 13.80974846 12.41929224 4.12408771
H 14.25091463 13.67687501 3.34182086
H 13.43329818 12.11047274 6.37040909
H 12.98266133 10.85421988 5.59319594
H 11.29153628 8.48416447 5.59978528
H 9.95037152 8.49076696 6.36922294
H 10.39473309 13.67390263 5.57693693
H 11.29683401 12.41780578 5.58219088
H 13.40203067 8.73331328 0.29630294
H 12.06649722 8.73331910 1.07441954
H 13.44255243 8.74564090 4.80549573
H 13.44248523 8.73795226 6.35232860
H 9.55544018 12.13632050 7.04931009
H 9.55556001 12.13861966 8.59487767
H 9.09180325 10.83899695 3.35689224
H 9.54264841 12.09929789 4.13011233
H 11.28331575 12.37957570 1.11766259
H 9.94264901 12.38118662 1.88745964
H 10.37455099 7.18638962 1.07816708
H 9.92203204 8.44703536 0.30563331
H 15.16727718 8.48668193 3.31444389
H 13.82708667 8.47669735 2.54189467
H 14.25933526 7.19969634 7.83725423
H 13.80305474 8.45679008 8.61120719
H 13.83717483 12.38668183 8.60979142
H 15.17656892 12.39531830 7.83601082
H 8.17950296 8.76988900 7.82047535
H 9.07087582 10.03280913 7.82690791
H 1.33107346 10.02956891 3.35226922
H 1.76996834 8.76389077 4.12444157
H 5.66328285 12.12312821 0.32828443
H 5.65865529 12.12769400 1.87398426
H 6.51190497 13.66930810 3.33794073
H 7.40600332 12.40834001 3.33854998
H 5.20988210 10.83419061 5.56266810
H 5.65597188 12.09826011 4.79162626
H 2.15666309 8.45881771 6.37116180
H 2.60428234 7.19468672 5.60199257
H 2.17981607 12.39102822 4.78433092
H 3.51864955 12.37781292 5.55772218
H 5.16624605 10.02325892 1.10132292
H 4.27796362 8.75865815 1.09704535
H 4.29750722 8.72859950 5.56372984
H 5.63590080 8.72505183 4.78771256
H 1.79230048 12.13875319 7.04578114
H 1.79853649 12.14351517 8.59297831
H 0.41677694 12.13257370 3.31654572
H 1.75253464 12.13081571 2.53690883
H 2.62775168 13.66906608 1.08508390
H 3.51552656 12.40509640 1.08699056
H 2.14117619 8.48116012 1.86510428
H 2.13402068 8.47440989 0.31867454
H 6.05302026 8.48076558 2.54672263
H 7.39511171 8.47004175 3.31640423
H 6.49422347 7.19887887 7.80908825
H 6.04124263 8.45530793 7.03315768
H 7.40031053 12.39165133 7.80305858
H 6.05942429 12.38364927 7.03212208
H 0.40705386 8.77736705 7.82879806
H 1.30995926 10.03245270 7.82412408
H 1.32806307 2.72420129 3.35326986
H 1.77063950 1.46068173 4.12453379
H 4.29897731 4.82260982 1.06642450
H 5.63928304 4.82262456 0.29387903
H 6.48465436 6.36286509 3.31160254
H 6.04189376 5.10147952 2.53825568
H 5.66221785 4.79980195 4.78806980
H 5.22337343 3.53744910 5.56420095
H 2.63468736 14.49755233 5.57788665
H 3.52660481 1.15580556 5.58335537
H 3.52678880 5.08616029 5.60026659
H 2.18842214 5.08310964 6.37519011
H 5.21093263 2.71374908 1.07423057
H 5.65237793 1.44786241 0.30601097
H 5.67119904 1.43179559 6.36656392
H 5.67140780 1.42440687 4.81861391
H 0.41204386 4.80926730 7.81834662
H 1.30170949 3.54554173 7.82432376
H 1.76525161 4.83462364 4.12569911
H 0.42343393 4.83688835 3.35740129
H 2.15852638 5.10158869 1.87621381
H 2.59838702 6.36512150 1.10551154
H 2.17727894 1.17561531 1.88659369
H 3.51461460 1.17577252 1.11101332
H 6.05372894 1.17490436 2.55194049
H 7.39364505 1.18480682 3.32006500
H 6.48902754 14.49883663 7.85261199
H 6.04297376 1.15362669 8.63365722
H 6.04602041 5.08389394 7.04883832
H 6.03317325 5.08660391 8.59467664
H 1.75816526 1.43571027 7.03194187
H 0.41652214 1.43515802 7.79992629
H 9.09618674 2.72833598 3.31790983
H 9.53397883 1.46479174 2.54120371
H 13.43495410 4.79386926 1.88274474
H 12.98221640 3.53360752 1.10665886
H 13.81094692 5.11766802 4.12777067
H 14.26082682 6.37483148 3.34839556
H 12.94860158 3.54677573 5.57506600
H 12.05495089 4.80727405 5.57822200
H 9.90705183 1.18232717 6.34866280
H 9.90458902 1.18057753 4.80233381
H 9.92711903 5.11547748 6.37613407
H 10.37380344 6.37346177 5.59793865
H 12.05571898 1.43170593 1.06643852
H 13.39618751 1.42899801 0.29467108
H 13.39680671 1.43848511 4.78091434
H 12.05879665 1.43327980 5.55694701
H 8.19291773 4.84066317 7.84590021
H 9.53121921 4.83937699 8.62124940
H 8.18946031 4.82870373 3.34787324
H 9.52230544 4.83290968 4.13241305
H 9.95538116 5.08636401 1.88768814
H 11.29580236 5.07943325 1.11510841
H 9.90967095 1.13962718 0.29613606
H 10.36354302 14.48801653 1.07887594
H 13.82001870 1.17817289 2.53382838
H 15.15778026 1.18343276 3.31208794
H 13.80369370 1.15363293 7.02559983
H 14.25393768 14.49610207 7.79990395
H 13.80041340 5.08923900 7.04323592
H 13.80541617 5.08923890 8.58851868
H 9.07280635 2.73415947 7.81842633
H 8.18045108 1.47137452 7.82973788
H 0.40761118 1.43975035 12.28767149
H 1.74744064 1.44075842 11.51481643
H 5.19058853 3.54991655 10.07321752
H 4.29470643 4.80942868 10.06304793
H 6.49770409 6.38120673 12.28915854
H 6.04915170 5.12211492 11.51385729
H 5.68485915 4.82715465 15.32049817
H 5.67690682 4.83089698 13.77364770
H 2.13760334 1.17943380 15.32267785
H 2.13401354 1.17652593 13.77522091
H 3.53970084 5.10947299 14.55008866
H 2.64133068 6.36680104 14.54826228
H 5.63645885 1.43501448 10.88026952
H 4.30053553 1.43962962 10.10066904
H 5.17710666 2.72304224 14.55331391
H 4.27477719 1.46759020 14.55158444
H 1.79320575 4.82079299 16.01277741
H 1.78696421 4.82588566 17.55862975
H 1.33393922 3.54233217 12.32320826
H 1.78750876 4.80343612 13.09361652
H 2.15757232 5.09176952 10.83625145
H 2.15138842 5.08833661 9.29032103
H 2.15443044 1.15975148 9.27601309
H 2.60434444 14.50334879 10.05232311
H 6.03996520 1.15005697 13.11403092
H 6.48731409 14.48855746 12.34306359
H 6.03987468 1.16916725 16.00782215
H 7.38286282 1.17298914 16.77289251
H 7.41784960 5.10524867 16.79801717
H 6.52112735 6.36476650 16.79592792
H 1.77435749 1.45550336 17.58493013
H 1.32690110 2.71525250 16.80976244
H 9.07399235 10.03108693 12.31192123
H 8.16902199 8.77767048 12.31304459
H 13.43485786 12.10620591 10.85208832
H 12.98537407 10.84743922 10.07634038
H 15.17017051 12.39047310 12.33056680
H 13.82748602 12.38018435 13.09801119
H 12.93945331 10.83750195 14.55295956
H 12.05324343 12.10453186 14.54939948
H 9.91717774 8.45296976 13.76192558
H 10.36684900 7.18971374 14.53272991
H 9.92526973 12.42347143 13.76143494
H 10.37369081 13.68060684 14.53939351
H 13.40708905 8.73436054 10.85098171
H 12.06169543 8.74124651 10.08731579
H 13.40131558 8.73370878 13.75559785
H 12.05920178 8.72578420 14.52592496
H 9.55818307 12.12240158 17.57110420
H 9.55012837 12.13501593 16.02393905
H 8.19290296 12.13755605 12.28901445
H 9.53337245 12.14234725 11.51592171
H 11.30162052 12.41785194 10.05838766
H 10.41296278 13.68234038 10.05567082
H 9.90551442 8.49149244 10.84457938
H 9.91104523 8.48467735 9.29886767
H 14.29575316 7.19952506 12.30110927
H 15.17912799 8.46593239 12.30171041
H 14.25093186 7.19372801 16.77636722
H 13.79602043 8.44869781 15.99600297
H 13.78707834 12.38149548 16.01899773
H 13.78976560 12.38296115 17.56531332
H 9.52961321 8.75189604 16.00745498
H 9.09268957 10.01639191 16.77956481
H 1.79217806 8.73663052 13.07837413
H 1.79339924 8.73750259 11.53180928
H 5.22039947 10.84558045 10.04694398
H 5.66404596 12.10933439 9.27726629
H 6.03814909 12.37618076 13.08808504
H 6.03626777 12.37946204 11.54083736
H 4.30421406 12.13115134 14.57986136
H 5.64514596 12.12733690 15.35005875
H 3.51995707 8.48269163 14.57362742
H 2.17524445 8.47542705 15.33598520
H 2.15576830 12.41004612 15.33405311
H 2.60682291 13.67028459 14.56214196
H 4.30686288 8.73924290 10.04388065
H 5.64924853 8.73691751 9.27864575
H 5.21102216 10.02336842 14.58091629
H 5.65317679 8.75857550 15.35189045
H 1.74918285 12.12960468 17.57016048
H 0.40813107 12.12955172 16.79958429
H 1.78302841 12.10830309 13.09151497
H 1.33590096 10.84829809 12.31637796
H 3.52797318 12.39622132 10.08398212
H 2.18664107 12.39647938 10.85363628
H 2.16369795 8.46451491 9.27909082
H 2.61507718 7.19874075 10.04332207
H 6.03127507 8.49398829 11.54248807
H 6.03085115 8.49000882 13.09026083
H 7.38862786 8.48027376 16.82036321
H 6.04952848 8.47352482 17.59531971
H 7.41146547 12.40189799 16.80497006
H 6.51451009 13.66094235 16.80424872
H 0.39921607 8.75713382 16.78801841
H 1.29175550 10.01830914 16.78923468
