384

O 9.07927983 1.75262065 12.30387862
O 12.97877064 4.50471014 10.04309397
O 14.25610875 5.41520066 12.29507544
O 12.97152286 4.50685712 14.53910295
O 10.37265724 0.84663708 14.53946889
O 10.37872823 5.41073745 14.54444949
O 12.96173478 1.76069806 10.05698913
O 12.95515933 1.76320578 14.54024814
O 9.07903694 4.49048653 16.78103778
O 9.07880090 4.49824592 12.30557038
O 10.38240265 5.40888419 10.06311727
O 10.37456369 0.85150457 10.06515323
O 14.25734220 0.85562704 12.30456107
O 14.25426192 0.85065224 16.77294950
O 14.27000985 5.40788547 16.77775884
O 9.07733443 1.74838646 16.78874576
O 9.08913037 9.05851693 3.32559220
O 12.97887894 11.79998255 1.07981720
O 14.27289885 12.71891222 3.31995967
O 12.98626611 11.80365415 5.57124375
O 10.38065354 8.14744840 5.56948127
O 10.38904377 12.70151474 5.56880150
O 12.96865797 9.06430498 1.08796835
O 12.96728947 9.06580915 5.57193046
O 9.10181300 11.79962454 7.81595777
O 9.09351899 11.80101458 3.32008784
O 10.38839104 12.69685324 1.07871448
O 10.38055755 8.14274039 1.07884878
O 14.26688669 8.16342947 3.33098145
O 14.25386077 8.16271334 7.81439105
O 14.27257765 12.72838830 7.81184122
O 9.08657173 9.05964262 7.80958986
O 1.32621475 9.06893310 3.35118275
O 5.21959840 11.80112920 1.09465487
O 6.50474059 12.70940943 3.34371307
O 5.21232982 11.80449977 5.58986971
O 2.60294751 8.16404427 5.59942649
O 2.62192993 12.72212046 5.59413758
O 5.21180502 9.06352980 1.10887454
O 5.19861938 9.06598957 5.60066188
O 1.32478293 11.82286836 7.83433371
O 1.33860947 11.81789256 3.35137592
O 2.62948080 12.71418050 1.10740401
O 2.61538944 8.16085288 1.11045366
O 6.49181097 8.15269901 3.35265144
O 6.49768583 8.14968561 7.83637878
O 6.51660564 12.71564473 7.83124172
O 1.31532800 9.07900328 7.83321369
O 1.31627540 1.77892090 3.34869004
O 5.21181631 4.50753581 1.10279307
O 6.50986460 5.41042841 3.34326022
O 5.21167652 4.50983360 5.57907349
O 2.60784813 0.86055882 5.59150510
O 2.62682280 5.41868296 5.58689970
O 5.19518166 1.76512097 1.10426645
O 5.20028169 1.76379615 5.59361579
O 1.32726690 4.51882403 7.82548828
O 1.32793584 4.51631825 3.33791220
O 2.62574334 5.42031966 1.10514175
O 2.60297926 0.85778536 1.10765317
O 6.48914870 0.84863208 3.34396366
O 6.49538832 0.85592336 7.83574856
O 6.49968784 5.40670767 7.83286274
O 1.30732235 1.77608250 7.82956874
O 9.08448003 1.74779984 3.32947222
O 12.97398911 4.50644045 1.07531199
O 14.26942220 5.42029114 3.31330435
O 12.98103548 4.51482702 5.55874202
O 10.38009228 0.84303807 5.57395329
O 10.38715523 5.40853646 5.56804959
O 12.96659861 1.76514889 1.07402774
O 12.96888536 1.76841694 5.56873365
O 9.09252883 4.50003721 7.81583670
O 9.09414062 4.49161412 3.32730328
O 10.38066237 5.39650860 1.07655664
O 10.38368023 0.83473781 1.08313796
O 14.26081745 0.86515684 3.32146260
O 14.25461643 0.86479873 7.81599425
O 14.26843083 5.41893346 7.80428997
O 9.08489922 1.75527236 7.82304174
O 1.31363372 1.76687815 12.31534014
O 5.19385809 4.50403636 10.07327944
O 6.48941197 5.40262763 12.31866760
O 5.18741139 4.50286221 14.56189902
O 2.60202559 0.85865157 14.55826587
O 2.60558661 5.41660348 14.56581057
O 5.20010194 1.76519981 10.07786034
O 5.18678489 1.76080500 14.56352175
O 1.32389695 4.50094288 16.81394270
O 1.31458980 4.51111431 12.32037259
O 2.61139916 5.42362655 10.07676233
O 2.60950245 0.86022573 10.07205901
O 6.49090132 0.84963184 12.32141017
O 6.48577486 0.84496109 16.80571873
O 6.49440778 5.40171165 16.78799381
O 1.31313235 1.75809875 16.80318711
O 9.07326135 9.05546983 12.30324748
O 12.98294422 11.80767305 10.05214824
O 14.27401330 12.71685523 12.29843655
O 12.98179312 11.79875835 14.53489108
O 10.37239339 8.14897744 14.54246402
O 10.39305039 12.70336238 14.53064297
O 12.96450108 9.06574961 10.06319941
O 12.95919361 9.05342663 14.54356316
O 9.10658421 11.79348727 16.77383202
O 9.09575583 11.79935651 12.28926964
O 10.39273898 12.71493024 10.05051387
O 10.37500133 8.15443392 10.06117570
O 14.26095470 8.16054785 12.30267723
O 14.26363880 8.15111451 16.78579829
O 14.27118252 12.71113992 16.78405179
O 9.07942632 9.05116698 16.78598302
O 1.31901471 9.07118859 12.31901357
O 5.20897622 11.80169836 10.07335091
O 6.50414211 12.71002757 12.31176220
O 5.20547530 11.80009792 14.55198236
O 2.60402772 8.16220949 14.56669724
O 2.61543157 12.71800056 14.56748133
O 5.20001423 9.06026829 10.07826427
O 5.19364085 9.05966118 14.56713976
O 1.33225311 11.80890512 16.81589355
O 1.32562161 11.81588000 12.31681975
O 2.62450796 12.72160843 10.07977822
O 2.60815860 8.16446386 10.07486889
O 6.48077048 8.14460326 12.32718891
O 6.49603464 8.14399423 16.80444053
O 6.51726949 12.70078114 16.79132861
O 1.31666076 9.06438500 16.81191530
H 9.54175051 1.45438623 13.09472750
H 9.09114527 2.71535439 12.32393984
H 13.42825241 4.80454334 10.84060579
H 12.98262798 3.54182830 10.06924673
H 13.82119051 5.08321362 13.08789968
H 15.16361875 5.09350520 12.32322876
H 13.43482310 4.79882150 15.33166861
H 12.97549254 3.54366726 14.55598631
H 9.93395246 1.17423627 15.33159763
H 11.27735534 1.17665341 14.56266159
H 10.39607766 6.37386447 14.54293687
H 11.29520183 5.11496388 14.54443550
H 12.05451414 1.43794656 10.08171664
H 13.39794432 1.42966637 10.84904650
H 13.42316521 1.42644249 15.31203060
H 13.42607163 1.43520796 13.76659924
H 9.55182143 4.81981170 16.00928542
H 9.54868008 4.81740623 17.55584285
H 9.55049532 4.82479694 11.53201336
H 9.54807703 4.83197619 13.07765651
H 11.28573621 5.07643610 10.04037948
H 9.94716263 5.08286414 9.26816520
H 9.90377243 1.18126965 9.29202932
H 9.90517618 1.18197721 10.83860817
H 14.28418006 14.49501586 12.30193520
H 15.17123369 1.15937843 12.30186046
H 13.80177119 1.15409969 17.56720553
H 14.24713255 14.48998265 16.80012153
H 15.17505903 5.07948182 16.80551282
H 13.83156166 5.08436665 17.57198521
H 8.16168571 1.44958667 16.79412879
H 9.05364920 2.71111969 16.78519031
H 8.17371067 8.75975773 3.33399878
H 9.06613971 10.02144994 3.32113889
H 13.41479874 12.13466327 1.87070033
H 12.07258941 12.12559740 1.10033617
H 15.18955353 12.42392364 3.32741448
H 14.29207515 13.68175109 3.32457571
H 13.43999400 12.10327499 4.77670763
H 12.99143023 10.84064830 5.55055566
H 9.91132180 8.47867633 4.79656792
H 9.91215297 8.47850425 6.34323567
H 11.29501261 12.37535744 5.58539112
H 9.95805432 12.36849618 6.36316871
H 12.98323788 10.02711391 1.06421060
H 13.42458800 8.76056694 0.29606808
H 13.39970705 8.73656847 6.36746999
H 12.06184677 8.73832354 5.59137688
H 8.19794394 12.13217165 7.83922492
H 9.53799761 12.13400272 8.60723762
H 8.19072522 12.13589699 3.34348067
H 9.53036530 12.12083369 4.11651167
H 10.37777229 13.65997019 1.09377605
H 9.92786202 12.40212958 1.87183060
H 9.94447523 8.47446949 1.87072277
H 11.28552607 8.47159938 1.10053438
H 13.79445384 8.48825818 4.10476243
H 13.79746946 8.49307915 2.55733533
H 13.80194012 8.46035485 8.61123368
H 14.24825698 7.19980411 7.83456847
H 13.84506567 12.39227368 7.01689068
H 15.17913354 12.40272081 7.79851396
H 9.54251170 8.75515284 8.60139470
H 9.10056182 10.02237601 7.83586819
H 0.41857955 8.74787443 3.32528606
H 1.76015923 8.73712421 2.55759476
H 5.22942984 10.83793041 1.08441616
H 5.67944439 12.09299434 0.30062114
H 6.48678402 13.67216237 3.31975903
H 6.05285628 12.40502186 2.54927310
H 5.68017170 12.13205629 4.81453824
H 5.68260006 12.13610602 6.36196079
H 2.60517625 7.20112063 5.57644147
H 2.15248880 8.45912343 4.80048018
H 3.52854613 12.39853129 5.57394277
H 2.19016080 12.39270846 4.79827264
H 5.63915478 8.73177404 1.90584649
H 4.30527944 8.73893112 1.12424722
H 4.28105291 8.77420318 5.60038636
H 5.18408834 10.02910483 5.59789464
H 1.78652460 12.11960603 7.04259736
H 1.33283683 10.85994007 7.81385068
H 1.34161261 10.85502955 3.33228821
H 1.79521859 12.11135994 2.55533239
H 2.19352463 12.38368158 0.31419598
H 3.53520587 12.38760003 1.08104061
H 2.60651739 7.19773538 1.08914306
H 2.15597048 8.45867285 0.31794397
H 6.03512209 8.44685750 4.14754321
H 6.49149959 7.18964432 3.36922707
H 7.40200853 8.47984419 7.80867322
H 6.05554243 8.48466851 7.04902302
H 6.05200214 12.40995300 8.61742633
H 6.49534753 13.67837781 7.85407952
H 0.40999029 8.75149424 7.81492691
H 1.74642691 8.74219151 7.04008408
H 1.78429545 1.44719535 4.12214928
H 1.78156134 1.44437921 2.57456227
H 4.30869028 4.84224405 1.08794205
H 5.64255708 4.83238412 0.30518387
H 7.41294958 5.07628827 3.32197321
H 6.07409758 5.08925738 2.54664635
H 5.67390378 4.80114659 4.78551543
H 5.21891685 3.54680917 5.56544081
H 2.14726955 1.15895059 6.38292976
H 2.59954505 14.49974139 5.61272725
H 2.18829447 5.09068431 4.79477927
H 3.53265045 5.09184350 5.55944622
H 5.17527759 2.72816019 1.10467243
H 4.27890154 1.46828861 1.10504326
H 4.29482985 1.43636124 5.57328620
H 5.63546134 1.43086229 4.80181885
H 1.33063794 3.55590987 7.80870099
H 1.79028928 4.81144071 7.03319394
H 1.30316965 3.55341939 3.34182443
H 0.41334619 4.81818397 3.33479829
H 2.15486484 5.09266062 1.87925085
H 2.15826514 5.08298724 0.33356090
H 2.14525802 1.15043826 0.31213838
H 2.60192505 14.49687201 1.08821283
H 7.39587640 1.17209106 3.31875838
H 6.05132913 1.18685612 2.55559463
H 6.01969753 1.17816560 7.06279716
H 6.02923124 1.18853947 8.61014459
H 6.48841182 6.36969907 7.81396108
H 6.04789674 5.10869657 7.03607500
H 1.74209779 1.44492572 8.62231898
H 0.40079472 1.45091462 7.85018575
H 9.54765798 1.41262596 4.10458035
H 9.55802759 1.42025963 2.55788729
H 13.40627102 4.84258111 1.86788705
H 12.06717337 4.83094652 1.09573653
H 14.25784731 6.38315633 3.33578031
H 13.81426204 5.11980704 4.10730659
H 12.98486248 3.55191640 5.57783016
H 13.43792610 4.80864934 6.35417344
H 10.37457054 14.48225955 5.59698548
H 9.92037998 1.14273219 6.36536194
H 10.40327739 6.37157638 5.56491549
H 11.30476688 5.11616590 5.56918089
H 13.42266292 1.47003443 1.86941434
H 12.97636614 2.72830770 1.09320639
H 12.06496373 1.43690917 5.58875347
H 13.40107522 1.43819547 6.36390874
H 9.52647615 4.83091943 7.02228011
H 8.18858334 4.83197198 7.79867247
H 9.55559167 4.79352132 4.11708240
H 9.10599897 3.52887665 3.34968334
H 9.92827721 5.09371511 1.87124427
H 10.36605150 6.35913112 1.09868209
H 11.28533448 1.17218058 1.05867011
H 9.94107832 1.16366345 0.29368872
H 15.16514673 1.19508033 3.34824244
H 13.82447164 1.18723648 4.11737694
H 14.25185421 14.50362057 7.82931190
H 13.79235742 1.15528911 8.60962882
H 13.83717057 5.08349201 8.59764876
H 15.17643517 5.09816230 7.82565926
H 9.06685383 2.71831132 7.81469244
H 8.16732529 1.46192770 7.82240149
H 1.32309377 2.72988422 12.29781074
H 1.77514396 1.46995232 11.52376709
H 4.29070546 4.83892860 10.05513322
H 5.62826971 4.83307457 9.27911864
H 6.05155819 5.07935411 11.52404324
H 7.39313571 5.07087186 12.29422459
H 5.65779039 4.82748025 13.78686555
H 5.66417247 4.82943996 15.33296038
H 3.50714696 1.18835099 14.53929074
H 2.17013543 1.19134091 13.76403507
H 2.62561662 6.37950422 14.56793580
H 3.52222881 5.12002565 14.56614476
H 5.65756075 1.46690020 10.87106868
H 5.20489301 2.72813863 10.09763597
H 5.20170392 2.72376491 14.54393516
H 5.65222526 1.45928169 13.77605849
H 1.77713345 4.80564395 16.02044737
H 1.33178791 3.53825065 16.78584002
H 1.78015810 4.84653036 11.54690889
H 1.78602661 4.84013691 13.09316898
H 2.15721842 5.12298195 9.28232738
H 2.59828090 6.38653175 10.05539408
H 3.52531186 1.15805166 10.07384449
H 2.63254760 14.49940146 10.07460705
H 7.40817472 1.14270505 12.31849650
H 6.50805109 14.48866416 12.31500467
H 6.01679401 1.17728046 16.03288924
H 6.01347750 1.17216910 17.57866367
H 7.40933967 5.10038423 16.78875270
H 6.52012305 6.36460139 16.79685471
H 0.40705433 1.43306625 16.77582906
H 1.74873516 1.43347822 16.00757578
H 9.08771055 10.01812648 12.28045887
H 9.53459294 8.75379959 11.51339511
H 12.08014383 12.14208470 10.03187163
H 13.42013744 12.13628953 9.25932119
H 13.80262179 12.38621055 13.07060078
H 13.80661778 12.39032065 11.52238210
H 12.07947024 12.13512339 14.55694230
H 13.41990337 12.12567344 15.32779578
H 9.90139599 8.47635028 13.76872299
H 9.90101200 8.47415282 15.31682061
H 9.93966894 12.40124732 15.32523296
H 10.37767836 13.66622853 14.55323840
H 13.42124542 8.77221636 10.85866978
H 12.97971909 10.02867508 10.07269642
H 12.04051311 8.76382256 14.54424252
H 12.94579698 10.01649689 14.54468239
H 9.53896804 12.11976758 17.57038930
H 8.20176132 12.12324249 16.79494068
H 9.53180982 12.12615714 13.08348404
H 8.19004008 12.12606761 12.31480289
H 10.37371455 13.67804837 10.07347497
H 9.93546453 12.41131636 10.84202266
H 10.39926803 7.19161584 10.05796912
H 11.29007340 8.45470351 10.06272819
H 13.79925278 8.45657691 13.09461235
H 14.24883661 7.19767568 12.31924067
H 13.79899421 8.44557156 15.99545533
H 14.25752954 7.18817555 16.76932109
H 15.17738916 12.38624596 16.81091972
H 13.83465374 12.38130051 17.57657277
H 9.54388651 8.74999740 17.57444356
H 9.10091302 10.01406124 16.80305302
H 1.75248439 8.74444975 11.52337627
H 0.41599130 8.73695872 12.30056062
H 4.29247444 12.09755381 10.07388922
H 5.18989457 10.83865271 10.07333781
H 6.03302037 12.37691434 13.08284987
H 6.03535159 12.38037655 11.53735166
H 5.18197035 10.83728942 14.56041260
H 4.29104153 12.10174909 14.55763397
H 3.50944972 8.49002191 14.54873609
H 2.17213305 8.48983226 13.77065021
H 2.60712914 13.68108089 14.54746951
H 2.15861963 12.42204615 13.77312254
H 5.66220320 8.72576826 10.85412012
H 5.67347460 8.72987819 9.30743351
H 5.66041804 8.73009954 15.34240700
H 5.66270433 8.72310943 13.79595726
H 1.33735250 10.84616386 16.79156548
H 1.78165051 12.11048847 16.01900921
H 1.30371406 10.85285724 12.31857501
H 0.40882897 12.11168718 12.31182114
H 2.15112461 12.39405196 10.85202362
H 2.15413496 12.39605337 9.30500634
H 3.51523009 8.48777366 10.05632466
H 2.17505327 8.50032629 9.28305834
H 7.39549520 8.44577306 12.31510638
H 6.50501538 7.18162659 12.32398112
H 6.06401388 8.46974405 17.60112522
H 7.39905608 8.47907737 16.82130802
H 6.49457658 13.66347293 16.77819046
H 6.05224099 12.40282172 16.00235943
H 1.75217553 8.73905095 16.01670963
H 0.41100091 8.73750436 16.78378672
