384

O 9.09495505 1.75527757 12.31132709
O 12.99332763 4.51819374 10.09423612
O 14.25608365 5.43124318 12.35462469
O 12.93445078 4.49335213 14.57286227
O 10.36901684 0.85057602 14.56924673
O 10.34358403 5.41879385 14.53481798
O 12.97160611 1.77657091 10.08060942
O 12.96300401 1.74913363 14.54996970
O 9.07816828 4.50117597 16.78083051
O 9.09043510 4.49607058 12.27667321
O 10.40026107 5.41636809 10.03860948
O 10.39223762 0.85772512 10.06077310
O 14.27812990 0.85041851 12.31268668
O 14.26435734 0.85119954 16.79391021
O 14.27612279 5.41616242 16.78642121
O 9.07490503 1.76472593 16.81311280
O 9.09184735 9.01992744 3.35236289
O 13.01041157 11.80095942 1.09731116
O 14.28538197 12.72029261 3.33177043
O 12.97675696 11.83904804 5.57302960
O 10.40406656 8.16644819 5.61486553
O 10.36802194 12.70235106 5.55541007
O 12.94248708 9.06092746 1.07124892
O 12.99995410 9.09296252 5.58343836
O 9.06730346 11.81939434 7.81351018
O 9.08604386 11.76300535 3.30930013
O 10.41960272 12.72330048 1.10292642
O 10.35828779 8.13612192 1.09211482
O 14.24992168 8.17034966 3.30883662
O 14.26294036 8.14927653 7.82099500
O 14.26500044 12.70238074 7.82574647
O 9.09177333 9.08528038 7.83153816
O 1.30890227 9.06336866 3.32402280
O 5.20008284 11.79653572 1.10965002
O 6.50533753 12.69736825 3.34558092
O 5.21646510 11.81879282 5.60691334
O 2.59782084 8.16050419 5.57170777
O 2.61752458 12.70864203 5.60779152
O 5.21696392 9.05626889 1.09168657
O 5.18530691 9.07403304 5.56747621
O 1.31453976 11.79406469 7.83240362
O 1.34235952 11.80684480 3.34496945
O 2.61351797 12.72854990 1.07836873
O 2.62710927 8.14231845 1.09825831
O 6.49178929 8.14546467 3.35202226
O 6.51690134 8.15562890 7.78372851
O 6.48981827 12.74176336 7.85078591
O 1.32135907 9.05870622 7.83463544
O 1.33969573 1.75990626 3.34919502
O 5.19605544 4.52048313 1.10976905
O 6.50806038 5.41342322 3.34663569
O 5.20292530 4.48756128 5.57419256
O 2.61880441 0.84229135 5.59184271
O 2.62093751 5.41479803 5.56819718
O 5.20479347 1.77424391 1.07828615
O 5.20428773 1.75423571 5.53774082
O 1.31477852 4.51360765 7.81014769
O 1.31680486 4.49954632 3.33934445
O 2.59380275 5.40876740 1.09394084
O 2.62312831 0.86990084 1.08431378
O 6.49872909 0.83705023 3.30086152
O 6.48972341 0.87819664 7.80181723
O 6.47296999 5.40872094 7.82098244
O 1.29643603 1.76783472 7.81332917
O 9.07284071 1.77291764 3.36088155
O 12.97799679 4.51420542 1.08101658
O 14.27270664 5.42457359 3.32447527
O 12.98601899 4.50707034 5.57468409
O 10.40059307 0.84598532 5.58385205
O 10.40000085 5.42815892 5.58768254
O 12.95940554 1.77060877 1.09005604
O 12.98843195 1.76575882 5.57126916
O 9.06829379 4.50822469 7.80749458
O 9.09836419 4.51914862 3.34857457
O 10.38172281 5.39450990 1.08472102
O 10.36762560 0.86416062 1.11023550
O 14.27809605 0.85828195 3.32731624
O 14.24721920 0.85149580 7.82972310
O 14.25996621 5.41163870 7.83206652
O 9.08908785 1.76254658 7.81009842
O 1.33357001 1.76156563 12.30531417
O 5.19387172 4.48126310 10.07769810
O 6.49527436 5.40598797 12.30761163
O 5.21353365 4.50138363 14.55336943
O 2.63492633 0.85120619 14.55225571
O 2.62327252 5.42219556 14.55490138
O 5.20217840 1.73914636 10.06209041
O 5.21928837 1.75989490 14.54026026
O 1.31107437 4.49027316 16.77763467
O 1.30824191 4.50425103 12.32517612
O 2.61256263 5.40057265 10.06925295
O 2.60178998 0.86116762 10.04044709
O 6.50825135 0.84686219 12.29915270
O 6.48653599 0.83980035 16.78315193
O 6.48778810 5.41330371 16.80579725
O 1.32244837 1.75217693 16.78129425
O 9.07155802 9.04737965 12.30420079
O 12.98567682 11.77756842 10.07459557
O 14.26305978 12.71414069 12.31669538
O 12.93182565 11.79868136 14.53946972
O 10.35663905 8.15860181 14.55763401
O 10.34214405 12.71331128 14.54196782
O 12.97978758 9.02865027 10.07849925
O 12.94973454 9.05729304 14.57258808
O 9.10383460 11.81036559 16.82052101
O 9.07664095 11.78575477 12.28040549
O 10.39257399 12.71192330 10.04646753
O 10.37715603 8.15909115 10.05862858
O 14.27616642 8.16908574 12.33934548
O 14.25869516 8.14886608 16.79663318
O 14.24926973 12.71275856 16.76819237
O 9.07864151 9.07129514 16.79693204
O 1.33376982 9.07695326 12.31229126
O 5.20163856 11.81354968 10.07867184
O 6.49948163 12.71700244 12.31494725
O 5.21854375 11.82570403 14.56167069
O 2.62536961 8.16984408 14.56471809
O 2.61900538 12.70994153 14.57015110
O 5.22600410 9.06827003 10.03228822
O 5.21296111 9.08556213 14.53267274
O 1.29888217 11.78950275 16.79214612
O 1.33267531 11.82224060 12.30842614
O 2.61567538 12.72810331 10.06170336
O 2.63218730 8.14897725 10.06217120
O 6.48312955 8.14636139 12.28975845
O 6.48945509 8.15654156 16.77529456
O 6.50391200 12.69683760 16.81882096
O 1.31112834 9.04529310 16.81704803
H 8.18937522 1.42737321 12.32351431
H 9.51983260 1.43210864 13.11263005
H 12.08663191 4.84280061 10.09775391
H 13.41462536 4.85432114 10.89240849
H 13.78844318 5.12982933 13.14048614
H 14.25360065 6.39421865 12.37590046
H 12.91733013 3.53064013 14.55965878
H 12.01893062 4.79059239 14.56625224
H 11.27734939 1.16991739 14.58221405
H 9.94215311 1.18446023 15.36519851
H 10.33841859 6.38187646 14.52156963
H 9.90118515 5.12414999 13.73172630
H 12.99402172 2.73909192 10.10786946
H 13.43407948 1.46655851 10.86646375
H 13.43497955 1.42484699 13.77556445
H 13.44044930 1.42575780 15.32129401
H 9.49986364 4.83095663 15.97964900
H 8.17547989 4.83644181 16.77619579
H 9.54947212 4.79156969 11.48382849
H 9.10776957 3.53318954 12.26802543
H 10.37879082 6.37916111 10.02407990
H 9.93696184 5.11783078 9.24928149
H 9.95341343 1.17633936 10.85633904
H 11.29262086 1.19906577 10.08747706
H 15.19518515 1.14429483 12.31193132
H 14.29346498 14.48936502 12.30910347
H 13.82510535 1.18563707 17.58272811
H 15.16911721 1.18027371 16.81496196
H 13.82308395 5.08268579 16.00493704
H 15.17671758 5.07406848 16.75460698
H 8.16200545 1.45875095 16.79857397
H 9.04679504 2.72762669 16.79838535
H 8.18353421 8.70110975 3.38321653
H 9.52896712 8.71028219 4.15233244
H 12.99302283 10.83827378 1.06860637
H 13.44953894 12.09592411 0.29245360
H 13.86165133 12.37668586 2.53736579
H 15.19096752 12.39265008 3.32377477
H 13.41209339 12.16861179 4.77945466
H 12.06526512 12.14779887 5.54465653
H 9.96837504 8.50840599 6.40319034
H 11.30566918 8.50303249 5.62475307
H 9.90278018 12.36114545 4.78475959
H 9.89654463 12.38123135 6.33111688
H 13.38079575 8.72289017 0.28270887
H 12.03739323 8.73277704 1.05321783
H 13.00507196 10.05552633 5.55655730
H 13.43586940 8.79018085 4.78017703
H 8.16701235 12.16025398 7.85016004
H 9.51996034 12.14739020 8.59775976
H 9.10597589 10.80056965 3.28972149
H 9.55510469 12.07133716 2.52731310
H 10.42667501 13.68627807 1.11367912
H 11.33796540 12.43437869 1.10496979
H 10.35529237 7.17301804 1.10183637
H 9.91120696 8.42052693 1.89637575
H 14.24493309 7.20747412 3.29970946
H 13.78178242 8.45814306 2.51784259
H 15.17016779 8.47191507 7.81387336
H 13.84096659 8.49337726 7.02623608
H 13.80486404 12.41934572 7.02802730
H 14.25193964 13.66512254 7.82026511
H 8.18101948 8.77205337 7.80948360
H 9.05552779 10.04815174 7.82561405
H 0.40028336 8.74530369 3.29096198
H 1.75144684 8.72745263 2.53741959
H 4.29880343 12.13521896 1.11554727
H 5.62958194 12.12501362 1.90669101
H 7.40406402 12.35139065 3.34743909
H 6.08084592 12.38053732 4.14974771
H 5.64454195 12.15084593 6.40328809
H 4.31172225 12.14840240 5.62217904
H 2.13356437 8.45369747 4.78053166
H 2.60019701 7.19780299 5.54937922
H 2.14325252 12.36812026 6.37432618
H 2.15765563 12.38103381 4.82789914
H 5.21923011 10.01930066 1.07855352
H 5.66907506 8.76734337 0.29202541
H 4.26719514 8.78262192 5.57243978
H 5.17388888 10.03682969 5.58722510
H 1.29729709 10.83087761 7.84161557
H 0.39791299 12.09045110 7.83139923
H 1.34739425 10.84419267 3.31464100
H 1.79185418 12.11252198 2.55048052
H 2.60184050 13.69126145 1.05623379
H 2.14941147 12.42556427 0.29124878
H 2.64256674 7.17914110 1.09906648
H 3.54336118 8.43859864 1.10017963
H 6.03933348 8.47392921 2.56798868
H 6.01107831 8.48737810 4.11374391
H 6.04613653 8.44739946 6.99598788
H 6.49397810 7.19296194 7.78032497
H 6.03234181 12.44746281 8.64593865
H 6.47628096 13.70486318 7.85615467
H 1.79640691 8.72351315 8.60273368
H 1.78574509 8.73332379 7.05632107
H 1.76706459 1.42069300 4.14302978
H 0.43363592 1.43420572 3.36086862
H 4.28717997 4.83740825 1.13189476
H 5.63094291 4.84938265 1.90375531
H 6.52395106 6.37667894 3.35379349
H 7.42600534 5.12139527 3.34249526
H 5.21414965 3.52491794 5.53705633
H 5.66711046 4.79840641 4.78942386
H 2.15656496 1.15055888 6.37849435
H 2.60672645 14.48153127 5.62208960
H 3.52392557 5.08049862 5.58837910
H 2.18406700 5.09102742 6.36298174
H 5.21803853 2.73667985 1.10672003
H 5.66722345 1.46481907 1.86480806
H 5.63181685 1.41376683 4.74478001
H 4.29983227 1.42346908 5.53406174
H 1.74678379 4.83498422 8.60821696
H 0.41131237 4.84765960 7.83067515
H 1.33699292 3.53673339 3.36517969
H 1.78132240 4.80585132 4.12578947
H 2.13243227 5.07654094 0.31708221
H 2.12113846 5.07659080 1.86471379
H 3.52637608 1.20441197 1.10390284
H 2.19051409 1.19203812 1.88183008
H 7.41142432 1.14390374 3.32693856
H 6.52871183 14.47656769 3.31030491
H 7.39746469 1.19912864 7.78419857
H 6.06322190 1.19746470 6.99963533
H 6.00823827 5.06715917 7.04929868
H 6.00646780 5.08165240 8.59680647
H 1.27667914 2.73077287 7.80711927
H 0.38012830 1.47018424 7.81775919
H 9.54285788 1.47108720 4.14516694
H 9.08931086 2.73551679 3.38138869
H 13.44323644 4.84402282 1.85691052
H 13.45240087 4.84360426 0.31016882
H 13.83716710 5.09743627 4.11838942
H 15.17610611 5.09102306 3.34917438
H 13.41451978 4.83168627 6.37376922
H 12.08151060 4.83698674 5.59568670
H 10.41403732 14.48541791 5.56951344
H 11.31717099 1.14111748 5.57592656
H 9.92697443 5.12111653 6.36844239
H 10.39362091 6.39077642 5.62106855
H 12.94368809 2.73353056 1.09130880
H 12.04154063 1.47943300 1.09628827
H 13.44803389 1.46671560 4.77947526
H 12.99727905 2.72863703 5.55008202
H 8.15008757 4.79810084 7.81397182
H 9.05513221 3.54538225 7.80793707
H 9.57258223 4.85915801 4.11479747
H 9.56718191 4.82922181 2.56674990
H 11.28962618 5.07445876 1.05715655
H 9.94453318 5.06707452 0.29171131
H 9.89157136 1.18800670 0.33783222
H 9.89869786 1.19254285 1.88427852
H 14.26920149 14.49743603 3.30494563
H 13.81582462 1.15797559 2.53777385
H 13.78349559 1.18212520 7.05289409
H 13.77867354 1.18595078 8.60146503
H 13.81393060 5.11659743 8.63316405
H 14.24541331 6.37472851 7.84368066
H 9.56620109 1.42600386 7.04404639
H 9.55222015 1.43648112 8.58870025
H 1.79480519 1.46185531 13.09543387
H 1.33117368 2.72431956 12.33467952
H 5.65766739 4.78211879 10.86630417
H 5.21356535 3.51853898 10.09437201
H 7.40110692 5.07960430 12.31713927
H 6.07045930 5.07887319 13.10799754
H 5.66348536 4.79493616 15.35267685
H 5.22299461 3.53836772 14.56665045
H 2.65127019 14.49033669 14.55643813
H 3.55213246 1.14562829 14.54566601
H 3.53742593 5.11979390 14.54789950
H 2.64942135 6.38480716 14.55666856
H 4.29406638 1.41987678 10.03349976
H 5.63400351 1.42938270 9.25891976
H 5.68434242 1.41995099 15.31247755
H 5.68916376 1.43559245 13.76454391
H 1.78277987 4.79888973 15.99674575
H 1.32965267 3.52742312 16.75238896
H 0.40419644 4.83443612 12.35292542
H 1.75003103 4.84337553 13.11071809
H 2.17308739 5.07559399 10.86153420
H 3.51276255 5.05828285 10.09180080
H 2.12441958 1.19977510 9.27511995
H 2.14449300 1.18959539 10.82178748
H 6.04522078 1.14138896 11.50770106
H 6.49556222 14.48564979 12.28313402
H 6.48300601 14.47951596 16.81913150
H 6.02829319 1.14874757 17.57197380
H 6.03014579 5.12392008 17.60219074
H 6.47462503 6.37623903 16.81329665
H 1.79540229 1.41858407 16.01106656
H 1.79630605 1.43477640 17.55734599
H 9.50411923 8.72828277 13.10327229
H 8.16762100 8.71507011 12.32233525
H 13.43965345 12.07389100 9.27886074
H 12.99393157 10.81487371 10.05683618
H 13.80085684 12.37544554 11.54265298
H 13.78715779 12.38490253 13.08638294
H 12.01544192 12.09397168 14.53902292
H 12.91540619 10.83593815 14.55760790
H 9.92763718 8.49159563 15.35349718
H 11.26419571 8.47993689 14.57714461
H 9.89046279 12.41588977 13.74568611
H 10.33822729 13.67624991 14.52452654
H 12.07085587 8.71113995 10.05719889
H 13.40856173 8.69984359 9.28130092
H 13.42687762 8.73961645 13.79879328
H 13.42494640 8.72840743 15.34336952
H 9.58900615 12.14877143 17.58061274
H 9.55297158 12.13689159 16.03371026
H 9.08888909 10.82272175 12.26563482
H 9.53854534 12.08389611 11.49022530
H 11.30545893 12.40647452 10.05270101
H 10.42122397 13.67448981 10.05662618
H 9.90684294 8.50472391 9.29200070
H 9.90634312 8.47389603 10.83735505
H 13.83831200 8.48141290 11.54052400
H 15.17945907 8.50149659 12.30967522
H 15.17376504 8.44988656 16.80706791
H 14.28672806 7.18564707 16.79321988
H 14.24497092 13.67586176 16.76067639
H 13.77981353 12.42469561 15.97841685
H 9.09935700 10.03383308 16.82773214
H 9.52454377 8.75852209 17.59134963
H 1.34665241 10.03968005 12.28624873
H 1.78996418 8.77069447 11.52197606
H 5.63259902 12.13508862 10.87783666
H 4.29692391 12.14336230 10.09510525
H 7.40045150 12.37640095 12.31840749
H 6.07426677 12.39703523 13.11790629
H 5.64903317 12.14353017 15.36250231
H 4.31078826 12.14648202 14.58477461
H 2.18725419 8.49794282 13.77256538
H 3.52671539 8.50819922 14.53849508
H 2.14065188 12.37176137 15.33481907
H 2.15721935 12.38660422 13.78953231
H 5.68341882 8.78125468 9.23538958
H 5.22935739 10.03115771 10.02660908
H 5.22874282 10.04841964 14.52038467
H 5.65949283 8.78494738 13.73418145
H 0.38357429 12.08845161 16.78155908
H 1.27892420 10.82696887 16.80976976
H 1.76278782 12.16011749 11.51555615
H 0.42500346 12.14273840 12.29072157
H 2.60025550 13.69083379 10.02921387
H 2.16001960 12.41644240 9.27236492
H 3.54792981 8.44594409 10.05378102
H 2.65097580 7.18617753 10.07235001
H 6.04094260 8.44469025 11.48809159
H 6.46649274 7.18350539 12.27661434
H 7.39345928 8.48784715 16.76007592
H 6.05843076 8.48798574 15.98029057
H 6.06872375 12.36359664 17.61084095
H 7.41109018 12.37477377 16.84157028
H 1.78894985 8.71940599 17.58752436
H 1.78589955 8.72844416 16.04151788
