384
 generated by VMD
 O         9.097970        1.788440       12.331533
 O        12.982489        4.493520       10.099092
 O        14.264201        5.420905       12.338967
 O        12.940014        4.507905       14.558309
 O        10.389125        0.864043       14.554925
 O        10.356334        5.397285       14.559086
 O        12.946074        1.760164       10.100954
 O        12.980916        1.768373       14.569386
 O         9.053540        4.473665       16.770632
 O         9.073341        4.529325       12.297737
 O        10.397408        5.418293       10.067563
 O        10.360326        0.856752       10.085602
 O        14.274167        0.851374       12.325705
 O        14.299264        0.855160       16.795752
 O        14.263564        5.409286       16.778156
 O         9.100421        1.739449       16.809399
 O         9.157075        9.053021        3.345651
 O        12.965529       11.799782        1.089972
 O        14.258358       12.709919        3.337244
 O        12.990560       11.795733        5.596143
 O        10.448533        8.151807        5.623549
 O        10.386356       12.708359        5.578390
 O        12.958799        9.058528        1.044279
 O        13.027766        9.066593        5.706516
 O         9.109151       11.809052        7.842795
 O         9.095624       11.785712        3.336684
 O        10.388215       12.708698        1.109355
 O        10.391565        8.155313        1.093734
 O        14.204260        8.170905        3.331236
 O        14.331414        8.257659        7.915684
 O        14.239956       12.771986        7.845570
 O         9.139687        9.065835        7.863631
 O         1.221519        9.184124        3.207985
 O         5.217338       11.800287        1.086072
 O         6.508004       12.694875        3.331446
 O         5.223578       11.801065        5.595170
 O         2.021832        8.148592        5.511168
 O         2.649532       12.740025        5.530210
 O         5.222931        9.058349        1.094016
 O         5.401569        9.012347        5.559118
 O         1.350396       11.947379        7.868529
 O         1.340090       11.900446        3.248867
 O         2.648964       12.776449        1.019503
 O         2.605455        8.176460        1.064630
 O         6.583184        8.147874        3.304357
 O         6.574665        8.143535        7.906965
 O         6.504339       12.678199        7.845510
 O         1.194222        8.852370        7.879812
 O         1.330213        1.757693        3.302641
 O         5.206180        4.509167        1.099744
 O         6.547340        5.394167        3.328783
 O         5.323443        4.412669        5.585109
 O         2.633956        0.873130        5.552318
 O         2.678265        5.238689        5.529887
 O         5.238898        1.771465        1.104495
 O         5.261309        1.676641        5.591941
 O         1.338159        4.452135        7.822914
 O         1.341025        4.492393        3.274796
 O         2.619012        5.424624        1.036399
 O         2.648965        0.908535        1.047644
 O         6.541177        0.831290        3.327447
 O         6.514020        0.812657        7.870953
 O         6.563719        5.378485        7.850790
 O         1.313747        1.712079        7.823988
 O         9.117454        1.770514        3.311133
 O        12.968860        4.483166        1.076007
 O        14.276361        5.408371        3.316639
 O        12.984540        4.493516        5.556845
 O        10.350467        0.853419        5.577670
 O        10.396304        5.410276        5.557574
 O        13.013338        1.746734        1.102548
 O        12.938931        1.754045        5.597641
 O         9.140588        4.496324        7.824470
 O         9.134559        4.510870        3.292596
 O        10.394431        5.420384        1.028749
 O        10.427661        0.847239        1.082912
 O        14.273914        0.843586        3.365236
 O        14.229272        0.882162        7.845803
 O        14.300043        5.374900        7.839570
 O         9.094293        1.755842        7.836971
 O         1.324639        1.774705       12.308317
 O         5.216359        4.502986       10.089307
 O         6.492740        5.448226       12.314685
 O         5.219127        4.522286       14.556927
 O         2.657343        0.852796       14.515398
 O         2.626031        5.433584       14.527466
 O         5.217968        1.760533       10.092829
 O         5.241418        1.774297       14.568015
 O         1.317961        4.500824       16.738400
 O         1.325604        4.508801       12.290942
 O         2.637896        5.421285       10.063690
 O         2.632475        0.877316       10.076083
 O         6.512338        0.849443       12.329711
 O         6.518429        0.857797       16.814644
 O         6.479307        5.424285       16.804279
 O         1.344763        1.762241       16.741804
 O         9.088825        9.053965       12.322035
 O        12.984158       11.802662       10.090862
 O        14.248264       12.719079       12.341939
 O        12.940975       11.810719       14.575191
 O        10.378950        8.138977       14.577487
 O        10.355375       12.727324       14.558711
 O        12.980697        9.087338       10.056490
 O        12.950644        9.062275       14.567775
 O         9.084982       11.819727       16.807913
 O         9.065473       11.792718       12.320745
 O        10.385790       12.717496       10.099232
 O        10.429287        8.157731       10.086205
 O        14.240167        8.174316       12.327464
 O        14.296405        8.146297       16.787672
 O        14.265361       12.718359       16.806335
 O         9.088274        9.080761       16.810524
 O         1.285002        9.032771       12.243921
 O         5.168901       11.774740       10.067102
 O         6.477072       12.707668       12.294640
 O         5.200183       11.831237       14.548618
 O         2.639364        8.170223       14.492829
 O         2.610815       12.720468       14.520768
 O         5.047876        9.031837       10.067069
 O         5.221125        9.098596       14.559471
 O         1.325642       11.818211       16.765629
 O         1.287555       11.800849       12.308642
 O         2.603823       12.771048       10.104597
 O         2.516950        8.079772        9.828518
 O         6.457389        8.191193       12.291070
 O         6.508032        8.159031       16.787966
 O         6.495698       12.724730       16.793554
 O         1.350975        9.078777       16.740274
 H         9.095461        2.751013       12.296031
 H         9.539359        1.481865       11.531992
 H        13.448370        4.828824       10.872859
 H        13.464800        4.801448        9.326659
 H        13.795681        5.117513       13.124757
 H        14.243484        6.382465       12.359683
 H        12.931779        3.544710       14.559693
 H        12.020111        4.795370       14.556825
 H         9.954313        1.211970       13.768265
 H        11.295535        1.188113       14.538157
 H         9.889107        5.087580       13.775736
 H         9.877941        5.053767       15.321989
 H        12.030106        1.461045       10.100860
 H        12.926269        2.722789       10.110301
 H        13.453774        1.440281       13.797611
 H        13.451357        1.440310       15.343340
 H         8.140358        4.778952       16.788654
 H         9.033066        3.510739       16.789116
 H         9.515596        4.858703       11.508261
 H         8.171789        4.867663       12.277021
 H        11.300088        5.084458       10.064687
 H         9.974875        5.081875        9.268947
 H        10.355056       14.495996       10.078026
 H         9.911439        1.145314        9.283087
 H        13.825906        1.179325       11.538740
 H        15.178034        1.182079       12.293447
 H        15.217295        1.146824       16.774845
 H        14.311922       14.494179       16.798063
 H        13.779913        5.090323       16.008299
 H        13.799312        5.076789       17.553530
 H         9.569299        1.421385       16.030474
 H         9.584942        1.418266       17.577917
 H         9.621544        8.729577        4.123634
 H         9.628422        8.719346        2.573251
 H        12.049201       12.098250        1.098717
 H        12.942510       10.837430        1.074078
 H        13.816522       12.380128        2.547364
 H        15.174767       12.419658        3.283971
 H        13.443405       12.156411        6.365501
 H        13.458905       12.118872        4.818801
 H        10.417921        7.188832        5.622823
 H         9.971870        8.445065        6.407420
 H         9.946006       12.367922        4.792082
 H        11.291114       12.382634        5.553802
 H        13.397982        8.729416        1.834031
 H        13.453635        8.727884        0.286027
 H        12.988787       10.029866        5.661145
 H        12.115105        8.752057        5.690254
 H         9.572149       12.139261        7.065998
 H         9.575891       12.143216        8.615588
 H         9.087330       10.822526        3.339405
 H         8.177160       12.076126        3.342294
 H         9.912813       12.392378        0.333779
 H         9.915422       12.377410        1.880839
 H        11.308105        8.450973        1.059525
 H        10.410519        7.192317        1.064659
 H        13.806670        8.486307        4.147405
 H        15.084662        8.554865        3.288050
 H        13.856179        8.563125        7.122818
 H        13.825748        8.564214        8.690058
 H        14.232308       13.737497        7.844316
 H        15.164202       12.511510        7.850513
 H         9.113232       10.028699        7.853404
 H         8.224545        8.765822        7.897759
 H         1.724338        8.840260        2.459517
 H         1.283752       10.147441        3.182183
 H         5.224527       10.837450        1.107742
 H         5.670799       12.097802        1.882331
 H         6.515162       13.658438        3.344009
 H         6.054471       12.411188        4.131702
 H         5.679321       12.094344        6.392876
 H         5.257733       10.841866        5.600750
 H         1.547163        8.588930        7.008680
 H         1.700776        8.544825        4.674145
 H         3.549754       12.396352        5.569022
 H         2.216678       12.452317        6.336970
 H         4.316933        8.733897        1.076988
 H         5.649350        8.734698        0.293145
 H         4.577977        8.546985        5.612456
 H         5.826577        8.702102        4.743538
 H         1.804820       12.246862        8.670828
 H         1.366553       10.999239        7.901572
 H         1.816518       12.243118        2.483556
 H         1.813576       12.198936        4.031711
 H         3.557218       12.456285        1.039854
 H         2.687593       13.739395        1.016110
 H         2.597206        7.213277        1.045238
 H         2.173139        8.471576        0.255921
 H         7.490227        8.474038        3.279608
 H         6.131143        8.481736        2.522078
 H         6.169545        8.470628        7.099522
 H         6.029593        8.460318        8.633223
 H         7.420964       12.382838        7.849027
 H         6.528813       13.641500        7.857890
 H         1.765736        8.489016        8.659168
 H         0.190357        8.606703        7.931065
 H         1.773028        1.442459        4.097867
 H         0.427373        1.424773        3.341602
 H         5.230788        3.546235        1.116577
 H         5.666510        4.807755        1.891279
 H         6.538778        6.355793        3.356261
 H         6.115604        5.082027        4.131213
 H         4.400843        4.679552        5.571949
 H         5.317636        3.448670        5.588193
 H         2.168044        1.149177        6.348208
 H         2.633982       14.512067        5.554314
 H         2.212815        4.982236        4.721076
 H         2.691558        6.187281        5.532445
 H         5.705292        1.431609        1.875822
 H         5.705594        1.438793        0.329690
 H         4.342893        1.387317        5.603045
 H         5.670420        1.349570        6.400295
 H         1.824911        4.785372        8.583657
 H         1.820991        4.731202        7.039366
 H         1.796384        4.791221        2.479673
 H         1.339575        3.528804        3.251947
 H         2.192618        5.087087        0.241988
 H         3.524720        5.096796        1.033366
 H         3.553569        1.237819        1.092548
 H         2.199223        1.214021        1.842522
 H         6.111884        1.141077        4.132369
 H         7.441503        1.173045        3.341457
 H         6.079070        1.155549        8.658880
 H         7.411989        1.160851        7.876739
 H         6.109677        5.073656        7.057943
 H         6.537137        6.340140        7.837466
 H         0.392680        1.430887        7.831033
 H         1.301590        2.674725        7.826884
 H         9.132210        2.733494        3.285074
 H         9.579147        1.466503        2.522624
 H        12.993360        3.520520        1.107032
 H        13.425745        4.794529        1.863875
 H        14.284420        6.369985        3.319842
 H        15.195058        5.119439        3.301929
 H        13.462414        4.821210        4.787118
 H        13.455256        4.811152        6.331662
 H        10.349910       14.492949        5.555109
 H         9.910925        1.152175        4.774089
 H        11.299467        5.078335        5.537844
 H         9.966304        5.090960        4.756667
 H        13.493898        1.426255        0.331776
 H        13.475831        1.418844        1.881196
 H        12.021120        1.461535        5.587491
 H        12.926694        2.716350        5.575778
 H         9.558625        4.825560        7.022110
 H         8.232652        4.821510        7.816140
 H         8.226511        4.833260        3.282945
 H         9.555820        4.844036        2.493472
 H        11.293186        5.074291        1.018159
 H         9.950702        5.080587        0.244740
 H        11.346126        1.137392        1.090257
 H        10.438632       14.486442        1.098968
 H        13.804324        1.142666        4.150625
 H        14.250310       14.482843        3.377569
 H        13.759955        1.208415        8.621484
 H        13.755955        1.207421        7.071744
 H        15.216161        5.071318        7.825787
 H        14.329509        6.329521        7.856885
 H         9.532948        1.452907        7.034602
 H         9.120088        2.718611        7.817002
 H         1.804041        1.445458       13.076513
 H         1.797709        1.456646       11.531896
 H         5.681298        4.848776       10.859426
 H         5.693807        4.815938        9.313526
 H         6.046713        5.141130       13.111599
 H         6.465811        6.410759       12.334598
 H         4.312513        4.846172       14.567929
 H         5.642772        4.857063       15.355388
 H         3.573428        1.149515       14.529718
 H         2.670890       14.491763       14.513653
 H         2.164829        5.096303       13.752389
 H         2.147424        5.100871       15.295090
 H         5.234087        2.723510       10.112629
 H         5.670647        1.460148       10.888452
 H         5.690832        1.480285       15.367727
 H         5.240158        2.737240       14.585090
 H         1.301326        3.537651       16.737560
 H         0.400953        4.794538       16.755522
 H         1.302797        3.545207       12.296395
 H         0.410840        4.808312       12.308702
 H         3.546041        5.094446       10.088013
 H         2.195979        5.090230       10.854579
 H         2.193082        1.181536        9.274365
 H         3.538084        1.206636       10.050276
 H         7.416083        1.181314       12.345879
 H         6.084403        1.178411       13.127833
 H         6.523712       14.496431       16.804781
 H         7.440012        1.139335       16.814226
 H         6.484708        6.387570       16.819317
 H         6.027555        5.131816       17.603519
 H         1.824908        1.457315       17.519339
 H         1.820834        1.432500       15.972212
 H         9.549956        8.720843       13.098556
 H         9.568600        8.729151       11.553391
 H        13.439079       12.154195        9.318036
 H        13.447510       12.138468       10.866257
 H        13.781553       12.424459       13.131553
 H        14.247986       13.682692       12.358850
 H        12.025292       12.109878       14.571795
 H        12.919044       10.848197       14.575670
 H         9.917648        8.448289       15.364442
 H        10.352008        7.176167       14.597589
 H        10.358538       13.690359       14.530548
 H         9.897808       12.425520       13.766958
 H        12.066609        8.773303       10.058311
 H        12.950212       10.052492       10.074342
 H        13.400854        8.733827       15.353021
 H        12.050401        8.718492       14.598050
 H         8.178483       12.144378       16.784369
 H         9.517471       12.152864       16.014185
 H         8.148608       12.086760       12.306610
 H         9.050074       10.829636       12.325564
 H         9.939095       12.378605       10.882577
 H        11.289919       12.390202       10.127217
 H        10.412219        7.194584       10.058952
 H         9.967788        8.463786        9.296292
 H        13.767570        8.505198       11.557668
 H        13.774813        8.504066       13.105443
 H        15.210308        8.448442       16.766699
 H        14.316628        7.183088       16.784859
 H        13.793430       12.390405       17.579679
 H        13.788559       12.392458       16.035809
 H         9.543766        8.782372       17.604942
 H         9.099840       10.043905       16.827024
 H         0.374515        8.712722       12.264294
 H         1.675912        8.700549       11.437594
 H         5.615791       12.089798        9.273563
 H         4.278069       12.137545       10.050221
 H         6.480029       13.670622       12.275604
 H         6.017719       12.410133       11.502311
 H         5.636325       12.149923       13.750582
 H         4.294216       12.156143       14.517238
 H         2.627248        7.206324       14.493546
 H         2.174090        8.448985       13.699608
 H         2.142744       12.401997       15.300278
 H         2.133826       12.382732       13.755552
 H         5.520289        8.740382       10.854720
 H         5.087319        9.995366       10.072236
 H         4.309024        8.791178       14.537055
 H         5.189176       10.061676       14.560774
 H         1.775723       12.165467       17.543417
 H         0.418127       12.138282       16.802210
 H         1.269628       10.840386       12.280322
 H         0.370614       12.098294       12.321145
 H         2.611447       13.736066       10.132038
 H         2.138779       12.465832       10.890690
 H         2.584036        7.111755        9.913936
 H         3.422708        8.428339        9.887815
 H         6.045821        8.527107       13.094888
 H         7.368854        8.499027       12.300194
 H         7.411737        8.492271       16.777809
 H         6.075889        8.498519       15.996956
 H         6.022437       12.400994       16.019962
 H         6.034909       12.384254       17.568132
 H         1.808365        8.790451       15.943998
 H         1.356386       10.042070       16.733690
