384
 generated by VMD
 O         9.243138        1.531414       12.446521
 O        12.983711        4.555994        9.947436
 O        14.320912        5.577102       12.134878
 O        12.939767        4.743752       14.402561
 O        10.347667        0.620508       14.453238
 O        10.289927        5.525696       14.568558
 O        12.968679        1.790691        9.831174
 O        12.703429        1.346851       15.080753
 O         9.031432        4.530368       16.843876
 O         9.106487        4.463896       12.346601
 O        10.360491        5.438034       10.060450
 O        10.400662        0.842254       10.122591
 O        14.417713        0.883779       12.000222
 O        14.316809        0.728646       17.104664
 O        14.232656        5.408010       16.758177
 O         8.986166        1.849819       16.882185
 O         9.080477        9.063449        3.339175
 O        12.945917       11.779840        1.116850
 O        14.238081       12.699101        3.372383
 O        12.946743       11.785869        5.599678
 O        10.359233        8.148739        5.586215
 O        10.367785       12.734444        5.575383
 O        12.964129        9.049091        1.115196
 O        12.955131        9.050612        5.564520
 O         9.082388       11.823385        7.829010
 O         9.073342       11.807406        3.341757
 O        10.361914       12.735536        1.110756
 O        10.380419        8.170296        1.105425
 O        14.284804        8.154648        3.335940
 O        14.284142        8.158528        7.790195
 O        14.294679       12.691948        7.799015
 O         9.079338        9.081507        7.830863
 O         1.345657        9.070022        3.352450
 O         5.177470       11.798334        1.116874
 O         6.479772       12.701323        3.356230
 O         5.198732       11.776872        5.601446
 O         2.621024        8.148967        5.596107
 O         2.613728       12.705519        5.597119
 O         5.205533        9.064106        1.118043
 O         5.207965        9.046685        5.573718
 O         1.356312       11.792595        7.842080
 O         1.306402       11.817986        3.362482
 O         2.594668       12.693480        1.114326
 O         2.619771        8.149261        1.115147
 O         6.502691        8.134725        3.342531
 O         6.498252        8.147471        7.823552
 O         6.486847       12.688017        7.835187
 O         1.340503        9.054891        7.836773
 O         1.298178        1.762570        3.332502
 O         5.178758        4.474392        1.114117
 O         6.470987        5.401351        3.346312
 O         5.202440        4.472254        5.592006
 O         2.636108        0.834088        5.536698
 O         2.619789        5.405014        5.544356
 O         5.149367        1.729969        1.119185
 O         5.211086        1.732047        5.603889
 O         1.353104        4.494087        7.798723
 O         1.309433        4.503145        3.302732
 O         2.597216        5.414750        1.062311
 O         2.569562        0.835227        1.105661
 O         6.479055        0.840510        3.345044
 O         6.528789        0.819254        7.820137
 O         6.509902        5.399582        7.822589
 O         1.367735        1.753594        7.782120
 O         9.053530        1.786270        3.396669
 O        12.940823        4.524107        1.073437
 O        14.261062        5.426199        3.302726
 O        12.982244        4.517648        5.543340
 O        10.380720        0.877495        5.600811
 O        10.389998        5.409856        5.587215
 O        12.946672        1.779828        1.241888
 O        12.949223        1.783531        5.561343
 O         9.092028        4.489804        7.819771
 O         9.064447        4.518292        3.359948
 O        10.349353        5.437286        1.122051
 O        10.330383        0.874486        1.182265
 O        14.258343        0.837217        3.397985
 O        14.314872        0.837276        7.690623
 O        14.299744        5.431489        7.750855
 O         9.098729        1.751501        7.862803
 O         1.447323        1.813678       12.244632
 O         5.235503        4.470688       10.057993
 O         6.502463        5.389059       12.295510
 O         5.189935        4.514697       14.541763
 O         2.624858        0.871006       14.567854
 O         2.617940        5.438142       14.510343
 O         5.304332        1.721715       10.086510
 O         5.251720        1.776931       14.540996
 O         1.306207        4.520024       16.752886
 O         1.342164        4.557117       12.265211
 O         2.651455        5.417271       10.020814
 O         2.703954        0.858914       10.020354
 O         6.635470        0.833658       12.309062
 O         6.423042        0.837878       16.807446
 O         6.446927        5.403223       16.807598
 O         1.290920        1.781269       16.814657
 O         9.075499        9.084589       12.274698
 O        12.982831       11.805756       10.041306
 O        14.268129       12.743687       12.284442
 O        12.948492       11.891589       14.529873
 O        10.356878        8.263786       14.552284
 O        10.402314       12.733371       14.465508
 O        12.966212        9.079249       10.007981
 O        12.974113        9.114192       14.537743
 O         9.086002       11.847396       16.818888
 O         9.084599       11.792413       12.348535
 O        10.381824       12.704239       10.068318
 O        10.385890        8.169059       10.060333
 O        14.301024        8.312370       12.248645
 O        14.245187        8.154156       16.790602
 O        14.276752       12.632319       16.814188
 O         9.077454        9.082412       16.813734
 O         1.369335        9.119683       12.310171
 O         5.223306       11.778729       10.096437
 O         6.506059       12.693945       12.327771
 O         5.189882       11.778194       14.556930
 O         2.623205        8.187572       14.551429
 O         2.612686       12.722168       14.581041
 O         5.203135        9.035205       10.074250
 O         5.233518        9.044736       14.568161
 O         1.335741       11.754308       16.806543
 O         1.341105       11.859920       12.317283
 O         2.655965       12.715456       10.078006
 O         2.614008        8.143078       10.072998
 O         6.510358        8.133670       12.309319
 O         6.493928        8.139402       16.829771
 O         6.466596       12.701250       16.807755
 O         1.317946        9.023476       16.812370
 H         8.309311        1.275993       12.372287
 H         9.679232        1.299210       11.608521
 H        12.074804        4.864029       10.010159
 H        13.432599        4.883417       10.734465
 H        13.836469        5.313537       12.921329
 H        14.323936        6.539798       12.149945
 H        12.929029        3.832892       14.110173
 H        12.012055        5.005071       14.441949
 H        10.360602       14.201381       14.432189
 H         9.932981        1.014626       13.589916
 H        10.282445        6.488091       14.593647
 H         9.863867        5.214596       15.371424
 H        12.966976        2.752633        9.895514
 H        13.491903        1.484963       10.577892
 H        11.260060        0.944287       14.644078
 H        13.266686        1.098125       15.836867
 H         9.470407        4.865712       17.633898
 H         8.123921        4.856113       16.858774
 H         9.220116        3.518109       12.405391
 H         9.542960        4.832275       13.124446
 H         9.925430        5.081954       10.839433
 H         9.890835        5.093822        9.293709
 H        11.306784        1.166735       10.051354
 H        10.442709       14.482219       10.087372
 H        13.911383        1.417003       12.612873
 H        15.324888        1.209516       12.075896
 H        15.184957        1.136267       17.005508
 H        13.895552        1.103633       17.887199
 H        15.140003        5.086828       16.728024
 H        13.809525        5.120806       15.943007
 H         9.409946        1.544415       16.090515
 H         9.015443        2.819325       16.854017
 H         9.545506        8.770961        2.547727
 H         9.086943       10.026127        3.323834
 H        13.394404       12.077060        0.318383
 H        12.049677       12.128252        1.086278
 H        13.775191       12.375291        2.593608
 H        13.766520       12.356377        4.140056
 H        13.427323       12.077127        6.382615
 H        12.954992       10.822524        5.610559
 H         9.897882        8.485772        6.361530
 H         9.890112        8.482468        4.814436
 H        10.404758       13.696791        5.579836
 H        11.278334       12.420567        5.589519
 H        12.966605       10.011786        1.138625
 H        13.433776        8.752191        1.902501
 H        13.395325        8.723615        4.773029
 H        12.051675        8.718389        5.546824
 H         9.515988       12.157112        7.036638
 H         8.172439       12.139005        7.805550
 H         9.510246       12.139789        4.133565
 H         8.165536       12.128636        3.367262
 H         9.904887       12.415056        1.897124
 H        10.341390       13.697169        1.159280
 H         9.952854        8.494921        0.306268
 H        11.289659        8.490294        1.088503
 H        14.304868        7.191226        3.325218
 H        15.199865        8.453594        3.345912
 H        13.819795        8.457359        7.001465
 H        14.283526        7.194939        7.759891
 H        15.201233       12.369610        7.837594
 H        13.855536       12.381731        8.598154
 H         9.543452        8.778245        8.618871
 H         9.095938       10.043930        7.851093
 H         1.341582       10.032536        3.375130
 H         1.793689        8.773754        4.152172
 H         4.269991       12.122651        1.098969
 H         5.606534       12.122463        0.318841
 H         6.469859       13.664352        3.335477
 H         6.020184       12.405802        2.563109
 H         5.213459       10.813808        5.568223
 H         5.650084       12.087646        4.809652
 H         2.168796        8.440948        6.395371
 H         2.604078        7.186180        5.600524
 H         3.516068       12.369378        5.610080
 H         2.187057       12.380643        6.398154
 H         5.664833        8.761446        1.908966
 H         5.206541       10.027070        1.142338
 H         5.639499        8.709332        4.781512
 H         4.301837        8.719455        5.561567
 H         1.367158       10.829366        7.862275
 H         1.809830       12.095056        8.636041
 H         1.742983       12.143923        4.157015
 H         0.398018       12.135907        3.389368
 H         2.136758       12.402214        1.910640
 H         2.570327       13.656343        1.122044
 H         2.190989        8.482566        1.911209
 H         3.522763        8.483510        1.128904
 H         6.516633        7.171394        3.343066
 H         7.418998        8.431017        3.344615
 H         6.066875        8.470911        7.025658
 H         7.397692        8.491635        7.812571
 H         6.014609       12.347319        7.067357
 H         6.027433       12.359206        8.615172
 H         1.760889        8.717265        8.635480
 H         0.431016        8.737081        7.842204
 H         1.277873        2.725780        3.327448
 H         0.383290        1.462390        3.359331
 H         5.177559        3.511628        1.092790
 H         5.626345        4.771423        0.315004
 H         6.013033        5.066592        4.125066
 H         5.999419        5.064058        2.577220
 H         5.217871        3.509783        5.623157
 H         5.660295        4.783642        6.380022
 H         2.613812       14.473097        5.530967
 H         2.166103        1.135706        4.752225
 H         3.521335        5.067330        5.534105
 H         2.186028        5.082065        4.747816
 H         5.563627        1.393943        0.318281
 H         4.240551        1.408304        1.112812
 H         4.303682        1.408496        5.570674
 H         5.643092        1.414349        4.803909
 H         1.796695        4.791957        6.997709
 H         1.363719        3.530949        7.777070
 H         0.406096        4.836865        3.287993
 H         1.738697        4.830373        2.504815
 H         3.507712        5.102792        1.082462
 H         2.632213        6.377108        1.085632
 H         2.113684        1.182528        0.331477
 H         2.100348        1.171824        1.877530
 H         6.038417        1.170743        2.554881
 H         7.377121        1.187476        3.336694
 H         6.501763       14.458397        7.803247
 H         6.059370        1.123111        7.035243
 H         6.526069        6.362492        7.824516
 H         7.427497        5.106269        7.814097
 H         0.464325        1.421629        7.748063
 H         1.805254        1.426247        6.989234
 H         9.517203        1.487063        4.187382
 H         9.070906        2.749705        3.410092
 H        13.392582        4.793983        0.266332
 H        12.959305        3.562485        1.099022
 H        13.784392        5.106687        2.529439
 H        13.791458        5.097722        4.077664
 H        13.435017        4.851418        6.326622
 H        12.078027        4.847034        5.581307
 H         9.958379        1.186084        6.409369
 H        11.283772        1.215346        5.611663
 H        10.365389        6.372822        5.577060
 H         9.919698        5.116843        4.799667
 H        13.371908        1.444551        2.041312
 H        12.042346        1.453458        1.242612
 H        12.980644        2.746668        5.576463
 H        13.439814        1.470109        6.331640
 H         9.108338        3.527115        7.813822
 H         9.558848        4.784293        7.030575
 H         9.500246        4.849816        2.567485
 H         8.155660        4.836799        3.335538
 H        10.384750        6.400142        1.119605
 H        11.261589        5.128510        1.098322
 H         9.867733        1.201202        1.964073
 H         9.859002        1.224060        0.423639
 H        14.239018       14.476395        3.411767
 H        13.794309        1.144626        4.186614
 H        13.832351        1.167433        8.458957
 H        14.293462       14.478261        7.741700
 H        13.844543        5.113482        8.540902
 H        15.198626        5.089127        7.788542
 H         8.197489        1.410877        7.864396
 H         9.522615        1.426422        8.662662
 H         1.845136        1.508866       13.065463
 H         1.405416        2.775397       12.288854
 H         5.263557        3.508405       10.043326
 H         5.690329        4.776087        9.265339
 H         6.073565        5.055889       11.498889
 H         7.399247        5.041615       12.291995
 H         5.629541        4.841135       13.749355
 H         4.283517        4.842858       14.510537
 H         3.542242        1.156024       14.564988
 H         2.635864       14.510468       14.570708
 H         2.153621        5.148723       13.716095
 H         2.604354        6.400440       14.502325
 H         4.392762        1.409165       10.055531
 H         5.726542        1.397093        9.283369
 H         5.236014        2.740797       14.518186
 H         5.722506        1.485579       13.756001
 H         1.774097        4.849868       15.978755
 H         1.777835        4.850615       17.524319
 H         0.440489        4.893756       12.220011
 H         1.787873        4.863821       11.468727
 H         3.549426        5.071151       10.014403
 H         2.216216        5.080065        9.229850
 H         2.223587        1.181682        9.250958
 H         2.255650        1.216236       10.795400
 H         6.173359        1.145923       11.521202
 H         6.558846       14.475014       12.302343
 H         7.307402        1.211112       16.838083
 H         6.012613        1.180910       16.004349
 H         6.002110        5.113552       16.003225
 H         6.441831        6.366363       16.797203
 H         1.739590        1.472973       16.020866
 H         1.295073        2.744145       16.771072
 H         8.178551        8.731429       12.263028
 H         9.520075        8.750323       11.486719
 H        12.068103       12.103268       10.045667
 H        12.957485       10.842015       10.020761
 H        13.820801       12.415617       11.496461
 H        14.293088       13.702420       12.199590
 H        13.433667       12.183715       15.310483
 H        13.436523       12.207332       13.759098
 H        11.272755        8.559301       14.521417
 H         9.933925        8.562484       13.740241
 H         9.943606       12.349159       13.697742
 H        11.318020       12.406531       14.463230
 H        13.457588        8.796099       10.787415
 H        13.438774        8.739376        9.240369
 H        13.422425        8.797431       15.329263
 H        12.990476       10.073871       14.570107
 H         9.562664       12.154006       16.048679
 H         9.557667       12.174006       17.595158
 H         9.059582       10.826935       12.317637
 H         8.166988       12.091166       12.341210
 H         9.905022       12.389099        9.292000
 H         9.912684       12.373501       10.838503
 H        11.305109        8.458027       10.048202
 H        10.397634        7.205189       10.062988
 H        15.212238        8.621008       12.302320
 H        13.859646        8.592714       13.055493
 H        14.224161        7.190741       16.790430
 H        13.791695        8.441673       17.589346
 H        14.332758       13.586629       16.931284
 H        15.185771       12.310872       16.812662
 H         9.529025        8.807501       16.007263
 H         9.078304       10.043274       16.807802
 H         1.811713        8.818297       13.111311
 H         1.388021       10.082441       12.325722
 H         4.309647       12.086678       10.092387
 H         5.193235       10.815821       10.087500
 H         6.024655       12.368773       13.096464
 H         6.039634       12.364237       11.550295
 H         5.643899       12.080271       15.349996
 H         5.214528       10.814919       14.575612
 H         3.532576        8.500539       14.585822
 H         2.186695        8.491571       15.354032
 H         2.180697       12.374159       15.368369
 H         3.510219       12.373839       14.584735
 H         4.297485        8.706894       10.052781
 H         5.635262        8.715692        9.274856
 H         5.696986        8.710131       15.342857
 H         5.695361        8.707407       13.793365
 H         1.777141       12.056555       17.607317
 H         1.347775       10.790780       16.826780
 H         1.759079       12.186582       13.121371
 H         0.430620       12.172565       12.326421
 H         2.185208       12.446418       10.874418
 H         2.658282       13.678993       10.071007
 H         2.172079        8.449489       10.871969
 H         2.607362        7.179461       10.089718
 H         6.501102        7.170772       12.284540
 H         6.042111        8.432353       11.521801
 H         6.054886        8.476769       17.618496
 H         7.397055        8.471514       16.850580
 H         7.386166       12.420751       16.816406
 H         6.472775       13.664311       16.806372
 H         0.410892        8.699596       16.824089
 H         1.746261        8.691217       17.608465
384
 generated by VMD
 O         9.243138        1.531414       12.446521
 O        12.983711        4.555994        9.947436
 O        14.320912        5.577102       12.134878
 O        12.939767        4.743752       14.402561
 O        10.347667        0.620508       14.453238
 O        10.289927        5.525696       14.568558
 O        12.968679        1.790691        9.831174
 O        12.703429        1.346851       15.080753
 O         9.031432        4.530368       16.843876
 O         9.106487        4.463896       12.346601
 O        10.360491        5.438034       10.060450
 O        10.400662        0.842254       10.122591
 O        14.417713        0.883779       12.000222
 O        14.316809        0.728646       17.104664
 O        14.232656        5.408010       16.758177
 O         8.986166        1.849819       16.882185
 O         9.080477        9.063449        3.339175
 O        12.945917       11.779840        1.116850
 O        14.238081       12.699101        3.372383
 O        12.946743       11.785869        5.599678
 O        10.359233        8.148739        5.586215
 O        10.367785       12.734444        5.575383
 O        12.964129        9.049091        1.115196
 O        12.955131        9.050612        5.564520
 O         9.082388       11.823385        7.829010
 O         9.073342       11.807406        3.341757
 O        10.361914       12.735536        1.110756
 O        10.380419        8.170296        1.105425
 O        14.284804        8.154648        3.335940
 O        14.284142        8.158528        7.790195
 O        14.294679       12.691948        7.799015
 O         9.079338        9.081507        7.830863
 O         1.345657        9.070022        3.352450
 O         5.177470       11.798334        1.116874
 O         6.479772       12.701323        3.356230
 O         5.198732       11.776872        5.601446
 O         2.621024        8.148967        5.596107
 O         2.613728       12.705519        5.597119
 O         5.205533        9.064106        1.118043
 O         5.207965        9.046685        5.573718
 O         1.356312       11.792595        7.842080
 O         1.306402       11.817986        3.362482
 O         2.594668       12.693480        1.114326
 O         2.619771        8.149261        1.115147
 O         6.502691        8.134725        3.342531
 O         6.498252        8.147471        7.823552
 O         6.486847       12.688017        7.835187
 O         1.340503        9.054891        7.836773
 O         1.298178        1.762570        3.332502
 O         5.178758        4.474392        1.114117
 O         6.470987        5.401351        3.346312
 O         5.202440        4.472254        5.592006
 O         2.636108        0.834088        5.536698
 O         2.619789        5.405014        5.544356
 O         5.149367        1.729969        1.119185
 O         5.211086        1.732047        5.603889
 O         1.353104        4.494087        7.798723
 O         1.309433        4.503145        3.302732
 O         2.597216        5.414750        1.062311
 O         2.569562        0.835227        1.105661
 O         6.479055        0.840510        3.345044
 O         6.528789        0.819254        7.820137
 O         6.509902        5.399582        7.822589
 O         1.367735        1.753594        7.782120
 O         9.053530        1.786270        3.396669
 O        12.940823        4.524107        1.073437
 O        14.261062        5.426199        3.302726
 O        12.982244        4.517648        5.543340
 O        10.380720        0.877495        5.600811
 O        10.389998        5.409856        5.587215
 O        12.946672        1.779828        1.241888
 O        12.949223        1.783531        5.561343
 O         9.092028        4.489804        7.819771
 O         9.064447        4.518292        3.359948
 O        10.349353        5.437286        1.122051
 O        10.330383        0.874486        1.182265
 O        14.258343        0.837217        3.397985
 O        14.314872        0.837276        7.690623
 O        14.299744        5.431489        7.750855
 O         9.098729        1.751501        7.862803
 O         1.447323        1.813678       12.244632
 O         5.235503        4.470688       10.057993
 O         6.502463        5.389059       12.295510
 O         5.189935        4.514697       14.541763
 O         2.624858        0.871006       14.567854
 O         2.617940        5.438142       14.510343
 O         5.304332        1.721715       10.086510
 O         5.251720        1.776931       14.540996
 O         1.306207        4.520024       16.752886
 O         1.342164        4.557117       12.265211
 O         2.651455        5.417271       10.020814
 O         2.703954        0.858914       10.020354
 O         6.635470        0.833658       12.309062
 O         6.423042        0.837878       16.807446
 O         6.446927        5.403223       16.807598
 O         1.290920        1.781269       16.814657
 O         9.075499        9.084589       12.274698
 O        12.982831       11.805756       10.041306
 O        14.268129       12.743687       12.284442
 O        12.948492       11.891589       14.529873
 O        10.356878        8.263786       14.552284
 O        10.402314       12.733371       14.465508
 O        12.966212        9.079249       10.007981
 O        12.974113        9.114192       14.537743
 O         9.086002       11.847396       16.818888
 O         9.084599       11.792413       12.348535
 O        10.381824       12.704239       10.068318
 O        10.385890        8.169059       10.060333
 O        14.301024        8.312370       12.248645
 O        14.245187        8.154156       16.790602
 O        14.276752       12.632319       16.814188
 O         9.077454        9.082412       16.813734
 O         1.369335        9.119683       12.310171
 O         5.223306       11.778729       10.096437
 O         6.506059       12.693945       12.327771
 O         5.189882       11.778194       14.556930
 O         2.623205        8.187572       14.551429
 O         2.612686       12.722168       14.581041
 O         5.203135        9.035205       10.074250
 O         5.233518        9.044736       14.568161
 O         1.335741       11.754308       16.806543
 O         1.341105       11.859920       12.317283
 O         2.655965       12.715456       10.078006
 O         2.614008        8.143078       10.072998
 O         6.510358        8.133670       12.309319
 O         6.493928        8.139402       16.829771
 O         6.466596       12.701250       16.807755
 O         1.317946        9.023476       16.812370
 H         8.309311        1.275993       12.372287
 H         9.679232        1.299210       11.608521
 H        12.074804        4.864029       10.010159
 H        13.432599        4.883417       10.734465
 H        13.836469        5.313537       12.921329
 H        14.323936        6.539798       12.149945
 H        12.929029        3.832892       14.110173
 H        12.012055        5.005071       14.441949
 H        10.360602       14.201381       14.432189
 H         9.932981        1.014626       13.589916
 H        10.282445        6.488091       14.593647
 H         9.863867        5.214596       15.371424
 H        12.966976        2.752633        9.895514
 H        13.491903        1.484963       10.577892
 H        11.260060        0.944287       14.644078
 H        13.266686        1.098125       15.836867
 H         9.470407        4.865712       17.633898
 H         8.123921        4.856113       16.858774
 H         9.220116        3.518109       12.405391
 H         9.542960        4.832275       13.124446
 H         9.925430        5.081954       10.839433
 H         9.890835        5.093822        9.293709
 H        11.306784        1.166735       10.051354
 H        10.442709       14.482219       10.087372
 H        13.911383        1.417003       12.612873
 H        15.324888        1.209516       12.075896
 H        15.184957        1.136267       17.005508
 H        13.895552        1.103633       17.887199
 H        15.140003        5.086828       16.728024
 H        13.809525        5.120806       15.943007
 H         9.409946        1.544415       16.090515
 H         9.015443        2.819325       16.854017
 H         9.545506        8.770961        2.547727
 H         9.086943       10.026127        3.323834
 H        13.394404       12.077060        0.318383
 H        12.049677       12.128252        1.086278
 H        13.775191       12.375291        2.593608
 H        13.766520       12.356377        4.140056
 H        13.427323       12.077127        6.382615
 H        12.954992       10.822524        5.610559
 H         9.897882        8.485772        6.361530
 H         9.890112        8.482468        4.814436
 H        10.404758       13.696791        5.579836
 H        11.278334       12.420567        5.589519
 H        12.966605       10.011786        1.138625
 H        13.433776        8.752191        1.902501
 H        13.395325        8.723615        4.773029
 H        12.051675        8.718389        5.546824
 H         9.515988       12.157112        7.036638
 H         8.172439       12.139005        7.805550
 H         9.510246       12.139789        4.133565
 H         8.165536       12.128636        3.367262
 H         9.904887       12.415056        1.897124
 H        10.341390       13.697169        1.159280
 H         9.952854        8.494921        0.306268
 H        11.289659        8.490294        1.088503
 H        14.304868        7.191226        3.325218
 H        15.199865        8.453594        3.345912
 H        13.819795        8.457359        7.001465
 H        14.283526        7.194939        7.759891
 H        15.201233       12.369610        7.837594
 H        13.855536       12.381731        8.598154
 H         9.543452        8.778245        8.618871
 H         9.095938       10.043930        7.851093
 H         1.341582       10.032536        3.375130
 H         1.793689        8.773754        4.152172
 H         4.269991       12.122651        1.098969
 H         5.606534       12.122463        0.318841
 H         6.469859       13.664352        3.335477
 H         6.020184       12.405802        2.563109
 H         5.213459       10.813808        5.568223
 H         5.650084       12.087646        4.809652
 H         2.168796        8.440948        6.395371
 H         2.604078        7.186180        5.600524
 H         3.516068       12.369378        5.610080
 H         2.187057       12.380643        6.398154
 H         5.664833        8.761446        1.908966
 H         5.206541       10.027070        1.142338
 H         5.639499        8.709332        4.781512
 H         4.301837        8.719455        5.561567
 H         1.367158       10.829366        7.862275
 H         1.809830       12.095056        8.636041
 H         1.742983       12.143923        4.157015
 H         0.398018       12.135907        3.389368
 H         2.136758       12.402214        1.910640
 H         2.570327       13.656343        1.122044
 H         2.190989        8.482566        1.911209
 H         3.522763        8.483510        1.128904
 H         6.516633        7.171394        3.343066
 H         7.418998        8.431017        3.344615
 H         6.066875        8.470911        7.025658
 H         7.397692        8.491635        7.812571
 H         6.014609       12.347319        7.067357
 H         6.027433       12.359206        8.615172
 H         1.760889        8.717265        8.635480
 H         0.431016        8.737081        7.842204
 H         1.277873        2.725780        3.327448
 H         0.383290        1.462390        3.359331
 H         5.177559        3.511628        1.092790
 H         5.626345        4.771423        0.315004
 H         6.013033        5.066592        4.125066
 H         5.999419        5.064058        2.577220
 H         5.217871        3.509783        5.623157
 H         5.660295        4.783642        6.380022
 H         2.613812       14.473097        5.530967
 H         2.166103        1.135706        4.752225
 H         3.521335        5.067330        5.534105
 H         2.186028        5.082065        4.747816
 H         5.563627        1.393943        0.318281
 H         4.240551        1.408304        1.112812
 H         4.303682        1.408496        5.570674
 H         5.643092        1.414349        4.803909
 H         1.796695        4.791957        6.997709
 H         1.363719        3.530949        7.777070
 H         0.406096        4.836865        3.287993
 H         1.738697        4.830373        2.504815
 H         3.507712        5.102792        1.082462
 H         2.632213        6.377108        1.085632
 H         2.113684        1.182528        0.331477
 H         2.100348        1.171824        1.877530
 H         6.038417        1.170743        2.554881
 H         7.377121        1.187476        3.336694
 H         6.501763       14.458397        7.803247
 H         6.059370        1.123111        7.035243
 H         6.526069        6.362492        7.824516
 H         7.427497        5.106269        7.814097
 H         0.464325        1.421629        7.748063
 H         1.805254        1.426247        6.989234
 H         9.517203        1.487063        4.187382
 H         9.070906        2.749705        3.410092
 H        13.392582        4.793983        0.266332
 H        12.959305        3.562485        1.099022
 H        13.784392        5.106687        2.529439
 H        13.791458        5.097722        4.077664
 H        13.435017        4.851418        6.326622
 H        12.078027        4.847034        5.581307
 H         9.958379        1.186084        6.409369
 H        11.283772        1.215346        5.611663
 H        10.365389        6.372822        5.577060
 H         9.919698        5.116843        4.799667
 H        13.371908        1.444551        2.041312
 H        12.042346        1.453458        1.242612
 H        12.980644        2.746668        5.576463
 H        13.439814        1.470109        6.331640
 H         9.108338        3.527115        7.813822
 H         9.558848        4.784293        7.030575
 H         9.500246        4.849816        2.567485
 H         8.155660        4.836799        3.335538
 H        10.384750        6.400142        1.119605
 H        11.261589        5.128510        1.098322
 H         9.867733        1.201202        1.964073
 H         9.859002        1.224060        0.423639
 H        14.239018       14.476395        3.411767
 H        13.794309        1.144626        4.186614
 H        13.832351        1.167433        8.458957
 H        14.293462       14.478261        7.741700
 H        13.844543        5.113482        8.540902
 H        15.198626        5.089127        7.788542
 H         8.197489        1.410877        7.864396
 H         9.522615        1.426422        8.662662
 H         1.845136        1.508866       13.065463
 H         1.405416        2.775397       12.288854
 H         5.263557        3.508405       10.043326
 H         5.690329        4.776087        9.265339
 H         6.073565        5.055889       11.498889
 H         7.399247        5.041615       12.291995
 H         5.629541        4.841135       13.749355
 H         4.283517        4.842858       14.510537
 H         3.542242        1.156024       14.564988
 H         2.635864       14.510468       14.570708
 H         2.153621        5.148723       13.716095
 H         2.604354        6.400440       14.502325
 H         4.392762        1.409165       10.055531
 H         5.726542        1.397093        9.283369
 H         5.236014        2.740797       14.518186
 H         5.722506        1.485579       13.756001
 H         1.774097        4.849868       15.978755
 H         1.777835        4.850615       17.524319
 H         0.440489        4.893756       12.220011
 H         1.787873        4.863821       11.468727
 H         3.549426        5.071151       10.014403
 H         2.216216        5.080065        9.229850
 H         2.223587        1.181682        9.250958
 H         2.255650        1.216236       10.795400
 H         6.173359        1.145923       11.521202
 H         6.558846       14.475014       12.302343
 H         7.307402        1.211112       16.838083
 H         6.012613        1.180910       16.004349
 H         6.002110        5.113552       16.003225
 H         6.441831        6.366363       16.797203
 H         1.739590        1.472973       16.020866
 H         1.295073        2.744145       16.771072
 H         8.178551        8.731429       12.263028
 H         9.520075        8.750323       11.486719
 H        12.068103       12.103268       10.045667
 H        12.957485       10.842015       10.020761
 H        13.820801       12.415617       11.496461
 H        14.293088       13.702420       12.199590
 H        13.433667       12.183715       15.310483
 H        13.436523       12.207332       13.759098
 H        11.272755        8.559301       14.521417
 H         9.933925        8.562484       13.740241
 H         9.943606       12.349159       13.697742
 H        11.318020       12.406531       14.463230
 H        13.457588        8.796099       10.787415
 H        13.438774        8.739376        9.240369
 H        13.422425        8.797431       15.329263
 H        12.990476       10.073871       14.570107
 H         9.562664       12.154006       16.048679
 H         9.557667       12.174006       17.595158
 H         9.059582       10.826935       12.317637
 H         8.166988       12.091166       12.341210
 H         9.905022       12.389099        9.292000
 H         9.912684       12.373501       10.838503
 H        11.305109        8.458027       10.048202
 H        10.397634        7.205189       10.062988
 H        15.212238        8.621008       12.302320
 H        13.859646        8.592714       13.055493
 H        14.224161        7.190741       16.790430
 H        13.791695        8.441673       17.589346
 H        14.332758       13.586629       16.931284
 H        15.185771       12.310872       16.812662
 H         9.529025        8.807501       16.007263
 H         9.078304       10.043274       16.807802
 H         1.811713        8.818297       13.111311
 H         1.388021       10.082441       12.325722
 H         4.309647       12.086678       10.092387
 H         5.193235       10.815821       10.087500
 H         6.024655       12.368773       13.096464
 H         6.039634       12.364237       11.550295
 H         5.643899       12.080271       15.349996
 H         5.214528       10.814919       14.575612
 H         3.532576        8.500539       14.585822
 H         2.186695        8.491571       15.354032
 H         2.180697       12.374159       15.368369
 H         3.510219       12.373839       14.584735
 H         4.297485        8.706894       10.052781
 H         5.635262        8.715692        9.274856
 H         5.696986        8.710131       15.342857
 H         5.695361        8.707407       13.793365
 H         1.777141       12.056555       17.607317
 H         1.347775       10.790780       16.826780
 H         1.759079       12.186582       13.121371
 H         0.430620       12.172565       12.326421
 H         2.185208       12.446418       10.874418
 H         2.658282       13.678993       10.071007
 H         2.172079        8.449489       10.871969
 H         2.607362        7.179461       10.089718
 H         6.501102        7.170772       12.284540
 H         6.042111        8.432353       11.521801
 H         6.054886        8.476769       17.618496
 H         7.397055        8.471514       16.850580
 H         7.386166       12.420751       16.816406
 H         6.472775       13.664311       16.806372
 H         0.410892        8.699596       16.824089
 H         1.746261        8.691217       17.608465
