384
 generated by VMD
 O         9.089232        1.745876       12.346221
 O        13.031638        4.528006       10.081851
 O        14.296481        5.436862       12.322858
 O        12.981367        4.485001       14.541439
 O        10.375445        0.818237       14.574125
 O        10.387362        5.389408       14.552991
 O        12.981722        1.786952       10.095705
 O        12.958158        1.740399       14.575514
 O         9.090721        4.479367       16.794899
 O         9.086458        4.490156       12.322480
 O        10.421707        5.385202       10.089361
 O        10.413894        0.838072       10.121894
 O        14.254139        0.850702       12.335480
 O        14.239363        0.846355       16.824656
 O        14.283498        5.420048       16.767778
 O         9.053238        1.737155       16.787296
 O         9.119285        9.075601        3.363094
 O        12.977772       11.800538        1.119219
 O        14.292548       12.743539        3.341009
 O        13.004645       11.829494        5.580314
 O        10.386279        8.181559        5.628423
 O        10.398331       12.712071        5.575204
 O        12.929185        9.060756        1.088968
 O        12.974713        9.096407        5.598250
 O         9.128121       11.830101        7.844055
 O         9.111621       11.809516        3.325143
 O        10.395607       12.747142        1.091608
 O        10.350001        8.142296        1.098208
 O        14.222725        8.169631        3.320121
 O        14.252442        8.167288        7.833529
 O        14.265738       12.736343        7.853920
 O         9.123373        9.100564        7.881618
 O         1.265101        9.104710        3.288974
 O         5.210251       11.780457        1.080382
 O         6.508907       12.688385        3.317506
 O         5.214693       11.807527        5.584623
 O         2.525872        8.282619        5.598065
 O         2.592663       12.639815        5.603841
 O         5.183712        9.046563        1.043948
 O         5.228936        9.062663        5.553946
 O         1.301180       11.819061        7.872984
 O         1.341039       11.836605        3.311279
 O         2.641702       12.716175        1.080768
 O         2.597315        8.128547        1.090175
 O         6.530856        8.206367        3.272624
 O         6.524461        8.225302        7.859824
 O         6.515184       12.610015        7.861283
 O         1.284530        9.104362        7.842723
 O         1.310435        1.768355        3.280370
 O         5.180795        4.496931        1.038138
 O         6.521078        5.442691        3.221231
 O         5.151159        5.148917        5.457069
 O         2.546340        0.769765        5.553419
 O         2.535737        5.187430        5.513628
 O         5.192106        1.749360        1.075765
 O         5.228834        1.474014        5.577803
 O         1.479992        4.437420        7.613902
 O         1.447056        4.420906        3.431656
 O         2.538242        5.388061        1.148297
 O         2.601829        0.837559        1.068600
 O         6.524332        0.811786        3.306067
 O         6.555379        0.716672        7.910832
 O         6.628737        5.458413        7.921827
 O         1.280071        1.781690        7.773580
 O         9.093329        1.763323        3.350981
 O        12.979832        4.525045        1.054239
 O        14.266613        5.401406        3.347648
 O        12.943079        4.531713        5.566066
 O        10.381620        0.851804        5.597601
 O        10.373847        5.441065        5.579319
 O        12.931596        1.780740        1.099014
 O        12.954348        1.775071        5.565061
 O         9.155910        4.465695        7.847950
 O         9.089950        4.513925        3.322916
 O        10.379362        5.403148        1.077213
 O        10.360296        0.878481        1.091270
 O        14.259721        0.887273        3.313709
 O        14.234326        0.881047        7.827363
 O        14.308065        5.446651        7.795547
 O         9.120321        1.712777        7.871106
 O         1.293661        1.766678       12.293046
 O         5.218656        4.474342       10.091794
 O         6.504397        5.407881       12.325850
 O         5.197557        4.499040       14.546204
 O         2.560921        0.860514       14.544333
 O         2.605111        5.372800       14.517721
 O         5.226006        1.724389       10.094455
 O         5.150054        1.766610       14.543580
 O         1.324833        4.496230       16.786308
 O         1.347931        4.500681       12.208490
 O         2.607899        5.315971        9.902729
 O         2.603449        0.875763       10.060695
 O         6.504137        0.832478       12.347725
 O         6.460317        0.832955       16.755665
 O         6.500090        5.416638       16.774824
 O         1.282378        1.763077       16.794043
 O         9.069083        9.053726       12.325266
 O        12.982308       11.784544       10.084439
 O        14.279210       12.714811       12.324253
 O        12.991979       11.822273       14.580173
 O        10.384089        8.138465       14.551952
 O        10.397018       12.686434       14.567603
 O        12.961521        9.031649       10.080709
 O        12.961922        9.083066       14.568123
 O         9.093299       11.805232       16.813461
 O         9.113389       11.793998       12.324941
 O        10.409077       12.708038       10.090647
 O        10.378471        8.123084       10.099934
 O        14.266257        8.173335       12.336650
 O        14.250687        8.160884       16.805208
 O        14.275370       12.711848       16.829357
 O         9.099200        9.070591       16.783239
 O         1.340304        9.045630       12.301276
 O         5.198146       11.780972       10.107583
 O         6.526759       12.687254       12.330194
 O         5.191748       11.782022       14.546702
 O         2.600067        8.114991       14.552924
 O         2.611325       12.720358       14.552295
 O         5.174306        9.054987       10.087271
 O         5.188845        9.038727       14.538151
 O         1.328126       11.806891       16.803164
 O         1.323421       11.793852       12.307522
 O         2.628295       12.733688       10.085685
 O         2.600281        8.092333       10.036035
 O         6.485666        8.144289       12.305874
 O         6.512269        8.152723       16.761663
 O         6.497521       12.696140       16.782511
 O         1.306572        9.057221       16.794136
 H         9.064043        2.708628       12.341737
 H         8.173452        1.446648       12.342593
 H        13.495407        4.869535       10.855072
 H        13.500740        4.850460        9.308124
 H        14.277189        6.399433       12.360315
 H        13.835805        5.118165       13.106213
 H        12.955333        3.522213       14.551366
 H        12.065959        4.784745       14.544886
 H        10.371890       14.457316       14.547248
 H         9.921087        1.123129       13.781067
 H         9.924623        5.098228       13.759524
 H        10.377819        6.352260       14.539699
 H        13.010893        2.749216       10.115891
 H        13.441042        1.477366       10.883983
 H        13.389378        1.418255       15.374392
 H        12.054708        1.406582       14.594771
 H         9.546478        4.775023       15.999371
 H         9.085185        3.516320       16.770269
 H         8.184163        4.826873       12.295119
 H         9.529379        4.808029       11.529097
 H        10.423150        6.348693       10.086588
 H        11.343354        5.107590       10.093567
 H         9.969239        1.168156       10.909851
 H        11.311458        1.187108       10.138057
 H        14.249748       14.489412       12.343436
 H        13.793367        1.137911       13.131465
 H        13.775638        1.148429       17.612926
 H        14.240881       14.485382       16.851261
 H        15.186045        5.083740       16.746635
 H        13.842896        5.082838       15.980156
 H         9.502658        1.394464       16.006710
 H         8.147934        1.410833       16.751062
 H         9.136089       10.039074        3.365349
 H         9.561884        8.786983        4.168279
 H        13.439293       12.095081        1.911160
 H        12.965628       10.837726        1.138158
 H        14.299295       13.706079        3.322206
 H        15.212464       12.457482        3.329516
 H        13.480256       12.168682        4.814342
 H        13.462030       12.157487        6.361376
 H        11.291145        8.510607        5.641440
 H         9.957547        8.514440        6.424294
 H        11.305108       12.389265        5.557128
 H         9.967116       12.383513        4.779412
 H        12.024360        8.730515        1.064506
 H        13.370453        8.735217        0.296888
 H        13.413231        8.786611        4.799634
 H        13.000042       10.059565        5.570601
 H         9.547551       12.150741        7.038842
 H         8.210170       12.122359        7.823176
 H         8.200994       12.121809        3.306601
 H         9.540949       12.151363        2.533629
 H        11.308959       12.443184        1.098687
 H        10.418022       13.710190        1.090509
 H         9.914062        8.439620        1.903909
 H        10.339511        7.179335        1.110682
 H        13.755025        8.456417        2.526971
 H        14.225880        7.208883        3.307402
 H        13.784771        8.504937        7.061389
 H        13.774401        8.475219        8.612509
 H        14.235228       13.698288        7.873593
 H        13.801960       12.423199        8.638212
 H         8.202032        8.821569        7.866720
 H         9.117531       10.064438        7.872833
 H         1.679417        8.815533        4.106337
 H         0.359596        8.775308        3.308376
 H         5.212159       10.817734        1.041460
 H         5.667339       12.089241        0.290495
 H         6.037312       12.379718        4.098261
 H         6.034963       12.348843        2.550452
 H         5.206277       10.845210        5.568670
 H         4.293499       12.088850        5.593972
 H         2.476018        7.335205        5.625700
 H         2.085657        8.591744        6.404940
 H         2.135959       12.358079        6.404045
 H         2.558875       13.602103        5.599302
 H         5.655582        8.720272        0.269840
 H         5.679443        8.747230        1.813437
 H         4.316048        8.769034        5.532621
 H         5.649531        8.747993        4.746686
 H         1.750155       12.154726        8.656747
 H         0.401876       12.165604        7.892226
 H         1.784343       12.092390        4.128140
 H         1.312944       10.873937        3.305636
 H         2.207809       12.398672        1.880696
 H         3.542711       12.374729        1.099263
 H         3.504066        8.454691        1.100006
 H         2.160737        8.485073        1.870450
 H         6.569724        7.247916        3.230630
 H         7.444864        8.513348        3.305633
 H         6.559466        7.264556        7.870397
 H         6.075809        8.480291        7.048017
 H         6.031480       12.317080        7.081439
 H         6.035700       12.289310        8.633400
 H         1.267993       10.069337        7.872081
 H         0.366690        8.809852        7.844781
 H         0.398000        1.453539        3.265432
 H         1.746801        1.417745        2.493267
 H         5.604769        4.835757        0.240780
 H         4.276892        4.822798        1.042975
 H         7.416509        5.082592        3.244127
 H         6.079662        5.090047        2.439170
 H         3.505478        5.095194        5.487845
 H         5.643794        5.283350        4.619745
 H         3.471508        1.029306        5.536076
 H         2.146071        1.115095        4.749604
 H         2.123489        4.833369        6.397453
 H         2.094516        4.835621        4.647303
 H         5.202524        2.711529        1.089227
 H         5.660130        1.452671        1.862514
 H         5.246281        2.419053        5.642654
 H         5.704285        1.253889        4.760208
 H         1.401970        3.468403        7.686682
 H         1.912329        4.746969        8.428884
 H         1.405814        3.450613        3.344862
 H         1.843817        4.767909        2.615060
 H         2.096688        5.092373        0.343795
 H         2.543236        6.352427        1.120947
 H         2.640027       14.475777        1.068812
 H         3.514068        1.146960        1.075032
 H         7.436600        1.122431        3.324450
 H         6.553101       14.449851        3.287927
 H         6.103414        0.966426        7.102475
 H         6.553226       14.353517        7.914079
 H         6.203954        5.209505        7.110382
 H         7.525956        5.099822        7.884829
 H         1.711717        1.397837        7.002294
 H         0.371362        1.456359        7.777802
 H         9.102818        2.725711        3.369883
 H         9.548956        1.464885        4.145759
 H        13.445232        4.844836        1.831291
 H        13.456774        4.853534        0.283736
 H        13.804773        5.081693        4.132798
 H        15.157103        5.059766        3.396830
 H        13.378599        4.861399        6.357054
 H        12.038945        4.868514        5.585305
 H        10.380403       14.490566        5.601061
 H         9.932744        1.130565        6.403436
 H        10.355892        6.403656        5.622790
 H         9.938984        5.116478        6.374967
 H        12.011075        1.494632        1.092951
 H        12.925249        2.743120        1.076029
 H        12.040744        1.466724        5.571839
 H        12.921195        2.736506        5.564713
 H         9.617733        4.757249        8.642639
 H         9.142909        3.502723        7.869547
 H         9.571793        4.829648        2.550169
 H         9.544603        4.860199        4.097896
 H        11.288819        5.089590        1.043726
 H         9.939638        5.063585        0.289425
 H         9.895708        1.199756        1.871529
 H         9.873929        1.190773        0.320396
 H        13.770014        1.211011        2.549107
 H        13.792666        1.204742        4.094156
 H        13.775123        1.215582        8.605338
 H        13.755550        1.202187        7.055740
 H        15.216128        5.155959        7.739187
 H        14.320522        6.412130        7.804763
 H         8.223431        1.363924        7.900579
 H         9.563373        1.396233        8.665911
 H         0.390006        1.433388       12.323498
 H         1.729273        1.443352       13.089375
 H         5.243270        3.511238       10.063742
 H         5.709058        4.783067        9.325028
 H         6.484175        6.370705       12.296687
 H         6.041781        5.096279       11.540580
 H         5.666395        4.827267       15.320816
 H         5.674788        4.828501       13.776367
 H         2.571991       14.499632       14.564528
 H         2.103398        1.150427       15.340599
 H         2.189841        5.058807       13.708408
 H         3.517620        5.063545       14.502910
 H         4.313431        1.421270       10.056436
 H         5.669349        1.363475        9.319328
 H         5.143494        2.730005       14.542645
 H         4.231534        1.477529       14.541543
 H         1.321486        3.532419       16.774120
 H         1.783368        4.779777       15.988188
 H         0.440474        4.819600       12.251093
 H         1.301469        3.538655       12.238322
 H         2.158316        5.012997       10.700861
 H         3.522080        5.017363        9.976363
 H         2.128563        1.201039       10.833726
 H         2.136168        1.202893        9.288408
 H         6.019096        1.164002       13.110794
 H         6.037837        1.151435       11.567401
 H         6.001583        1.160972       17.535660
 H         5.981880        1.171467       15.990798
 H         6.534447        6.379784       16.770891
 H         7.411302        5.105309       16.783779
 H         1.729396        1.424328       17.576908
 H         0.376250        1.437081       16.826921
 H         9.531268        8.748334       13.113345
 H         9.098228       10.016438       12.344669
 H        12.954927       10.822281       10.083286
 H        12.067134       12.086663       10.090507
 H        15.183124       12.382263       12.297810
 H        13.838009       12.375888       11.538281
 H        13.458957       12.147041       13.803067
 H        13.461571       12.155728       15.352164
 H        11.285082        8.478097       14.568810
 H         9.950871        8.473257       15.344651
 H         9.956761       12.361773       15.360338
 H        11.305540       12.367916       14.597562
 H        13.404404        8.717000       10.876043
 H        12.057967        8.698842       10.114341
 H        12.977508       10.045919       14.591835
 H        13.418957        8.779202       15.359598
 H         9.524699       12.152072       17.601393
 H         8.186927       12.131295       16.821634
 H         9.584708       12.122067       11.551550
 H         9.585922       12.116380       13.099984
 H        10.406887       13.671425       10.084200
 H         9.951204       12.425114        9.291496
 H         9.906067        8.454760       10.871009
 H         9.921216        8.472318        9.326723
 H        15.172529        8.498287       12.347856
 H        13.834220        8.515539       13.126817
 H        14.282075        7.198503       16.785728
 H        15.164624        8.465484       16.805601
 H        15.181822       12.385990       16.846367
 H        13.839726       12.368398       17.616888
 H         9.531364        8.762096       17.586624
 H         9.110777       10.033436       16.815628
 H         1.804122        8.711624       13.076471
 H         1.792939        8.689860       11.530546
 H         5.670663       12.077938       10.892585
 H         5.185537       10.817970       10.135577
 H         6.538128       13.650163       12.337466
 H         7.445924       12.398908       12.328945
 H         5.193820       10.819147       14.526471
 H         5.664421       12.075850       13.760456
 H         2.141111        8.421518       15.341578
 H         2.579470        7.152456       14.569700
 H         3.514710       12.386868       14.529208
 H         2.175006       12.384936       13.762033
 H         4.278522        8.703971       10.051817
 H         5.621224        8.755702        9.288271
 H         5.619864        8.708422       13.742164
 H         4.287348        8.700884       14.529628
 H         1.789375       12.136694       16.024723
 H         1.806708       12.138675       17.570761
 H         1.787688       12.106137       11.523392
 H         1.345410       10.831736       12.280015
 H         3.543040       12.431684       10.088837
 H         2.648800       13.696216       10.078333
 H         2.137515        8.428901        9.261843
 H         2.593185        7.133588        9.967199
 H         7.388902        8.479290       12.293481
 H         6.050228        8.476104       11.513363
 H         7.411418        8.497322       16.744858
 H         6.070956        8.474455       15.967746
 H         6.039117       12.385136       15.994423
 H         6.469766       13.658623       16.753967
 H         1.767347        8.759175       17.585142
 H         1.328682       10.020109       16.809034
384
 generated by VMD
 O         9.089232        1.745876       12.346221
 O        13.031638        4.528006       10.081851
 O        14.296481        5.436862       12.322858
 O        12.981367        4.485001       14.541439
 O        10.375445        0.818237       14.574125
 O        10.387362        5.389408       14.552991
 O        12.981722        1.786952       10.095705
 O        12.958158        1.740399       14.575514
 O         9.090721        4.479367       16.794899
 O         9.086458        4.490156       12.322480
 O        10.421707        5.385202       10.089361
 O        10.413894        0.838072       10.121894
 O        14.254139        0.850702       12.335480
 O        14.239363        0.846355       16.824656
 O        14.283498        5.420048       16.767778
 O         9.053238        1.737155       16.787296
 O         9.119285        9.075601        3.363094
 O        12.977772       11.800538        1.119219
 O        14.292548       12.743539        3.341009
 O        13.004645       11.829494        5.580314
 O        10.386279        8.181559        5.628423
 O        10.398331       12.712071        5.575204
 O        12.929185        9.060756        1.088968
 O        12.974713        9.096407        5.598250
 O         9.128121       11.830101        7.844055
 O         9.111621       11.809516        3.325143
 O        10.395607       12.747142        1.091608
 O        10.350001        8.142296        1.098208
 O        14.222725        8.169631        3.320121
 O        14.252442        8.167288        7.833529
 O        14.265738       12.736343        7.853920
 O         9.123373        9.100564        7.881618
 O         1.265101        9.104710        3.288974
 O         5.210251       11.780457        1.080382
 O         6.508907       12.688385        3.317506
 O         5.214693       11.807527        5.584623
 O         2.525872        8.282619        5.598065
 O         2.592663       12.639815        5.603841
 O         5.183712        9.046563        1.043948
 O         5.228936        9.062663        5.553946
 O         1.301180       11.819061        7.872984
 O         1.341039       11.836605        3.311279
 O         2.641702       12.716175        1.080768
 O         2.597315        8.128547        1.090175
 O         6.530856        8.206367        3.272624
 O         6.524461        8.225302        7.859824
 O         6.515184       12.610015        7.861283
 O         1.284530        9.104362        7.842723
 O         1.310435        1.768355        3.280370
 O         5.180795        4.496931        1.038138
 O         6.521078        5.442691        3.221231
 O         5.151159        5.148917        5.457069
 O         2.546340        0.769765        5.553419
 O         2.535737        5.187430        5.513628
 O         5.192106        1.749360        1.075765
 O         5.228834        1.474014        5.577803
 O         1.479992        4.437420        7.613902
 O         1.447056        4.420906        3.431656
 O         2.538242        5.388061        1.148297
 O         2.601829        0.837559        1.068600
 O         6.524332        0.811786        3.306067
 O         6.555379        0.716672        7.910832
 O         6.628737        5.458413        7.921827
 O         1.280071        1.781690        7.773580
 O         9.093329        1.763323        3.350981
 O        12.979832        4.525045        1.054239
 O        14.266613        5.401406        3.347648
 O        12.943079        4.531713        5.566066
 O        10.381620        0.851804        5.597601
 O        10.373847        5.441065        5.579319
 O        12.931596        1.780740        1.099014
 O        12.954348        1.775071        5.565061
 O         9.155910        4.465695        7.847950
 O         9.089950        4.513925        3.322916
 O        10.379362        5.403148        1.077213
 O        10.360296        0.878481        1.091270
 O        14.259721        0.887273        3.313709
 O        14.234326        0.881047        7.827363
 O        14.308065        5.446651        7.795547
 O         9.120321        1.712777        7.871106
 O         1.293661        1.766678       12.293046
 O         5.218656        4.474342       10.091794
 O         6.504397        5.407881       12.325850
 O         5.197557        4.499040       14.546204
 O         2.560921        0.860514       14.544333
 O         2.605111        5.372800       14.517721
 O         5.226006        1.724389       10.094455
 O         5.150054        1.766610       14.543580
 O         1.324833        4.496230       16.786308
 O         1.347931        4.500681       12.208490
 O         2.607899        5.315971        9.902729
 O         2.603449        0.875763       10.060695
 O         6.504137        0.832478       12.347725
 O         6.460317        0.832955       16.755665
 O         6.500090        5.416638       16.774824
 O         1.282378        1.763077       16.794043
 O         9.069083        9.053726       12.325266
 O        12.982308       11.784544       10.084439
 O        14.279210       12.714811       12.324253
 O        12.991979       11.822273       14.580173
 O        10.384089        8.138465       14.551952
 O        10.397018       12.686434       14.567603
 O        12.961521        9.031649       10.080709
 O        12.961922        9.083066       14.568123
 O         9.093299       11.805232       16.813461
 O         9.113389       11.793998       12.324941
 O        10.409077       12.708038       10.090647
 O        10.378471        8.123084       10.099934
 O        14.266257        8.173335       12.336650
 O        14.250687        8.160884       16.805208
 O        14.275370       12.711848       16.829357
 O         9.099200        9.070591       16.783239
 O         1.340304        9.045630       12.301276
 O         5.198146       11.780972       10.107583
 O         6.526759       12.687254       12.330194
 O         5.191748       11.782022       14.546702
 O         2.600067        8.114991       14.552924
 O         2.611325       12.720358       14.552295
 O         5.174306        9.054987       10.087271
 O         5.188845        9.038727       14.538151
 O         1.328126       11.806891       16.803164
 O         1.323421       11.793852       12.307522
 O         2.628295       12.733688       10.085685
 O         2.600281        8.092333       10.036035
 O         6.485666        8.144289       12.305874
 O         6.512269        8.152723       16.761663
 O         6.497521       12.696140       16.782511
 O         1.306572        9.057221       16.794136
 H         9.064043        2.708628       12.341737
 H         8.173452        1.446648       12.342593
 H        13.495407        4.869535       10.855072
 H        13.500740        4.850460        9.308124
 H        14.277189        6.399433       12.360315
 H        13.835805        5.118165       13.106213
 H        12.955333        3.522213       14.551366
 H        12.065959        4.784745       14.544886
 H        10.371890       14.457316       14.547248
 H         9.921087        1.123129       13.781067
 H         9.924623        5.098228       13.759524
 H        10.377819        6.352260       14.539699
 H        13.010893        2.749216       10.115891
 H        13.441042        1.477366       10.883983
 H        13.389378        1.418255       15.374392
 H        12.054708        1.406582       14.594771
 H         9.546478        4.775023       15.999371
 H         9.085185        3.516320       16.770269
 H         8.184163        4.826873       12.295119
 H         9.529379        4.808029       11.529097
 H        10.423150        6.348693       10.086588
 H        11.343354        5.107590       10.093567
 H         9.969239        1.168156       10.909851
 H        11.311458        1.187108       10.138057
 H        14.249748       14.489412       12.343436
 H        13.793367        1.137911       13.131465
 H        13.775638        1.148429       17.612926
 H        14.240881       14.485382       16.851261
 H        15.186045        5.083740       16.746635
 H        13.842896        5.082838       15.980156
 H         9.502658        1.394464       16.006710
 H         8.147934        1.410833       16.751062
 H         9.136089       10.039074        3.365349
 H         9.561884        8.786983        4.168279
 H        13.439293       12.095081        1.911160
 H        12.965628       10.837726        1.138158
 H        14.299295       13.706079        3.322206
 H        15.212464       12.457482        3.329516
 H        13.480256       12.168682        4.814342
 H        13.462030       12.157487        6.361376
 H        11.291145        8.510607        5.641440
 H         9.957547        8.514440        6.424294
 H        11.305108       12.389265        5.557128
 H         9.967116       12.383513        4.779412
 H        12.024360        8.730515        1.064506
 H        13.370453        8.735217        0.296888
 H        13.413231        8.786611        4.799634
 H        13.000042       10.059565        5.570601
 H         9.547551       12.150741        7.038842
 H         8.210170       12.122359        7.823176
 H         8.200994       12.121809        3.306601
 H         9.540949       12.151363        2.533629
 H        11.308959       12.443184        1.098687
 H        10.418022       13.710190        1.090509
 H         9.914062        8.439620        1.903909
 H        10.339511        7.179335        1.110682
 H        13.755025        8.456417        2.526971
 H        14.225880        7.208883        3.307402
 H        13.784771        8.504937        7.061389
 H        13.774401        8.475219        8.612509
 H        14.235228       13.698288        7.873593
 H        13.801960       12.423199        8.638212
 H         8.202032        8.821569        7.866720
 H         9.117531       10.064438        7.872833
 H         1.679417        8.815533        4.106337
 H         0.359596        8.775308        3.308376
 H         5.212159       10.817734        1.041460
 H         5.667339       12.089241        0.290495
 H         6.037312       12.379718        4.098261
 H         6.034963       12.348843        2.550452
 H         5.206277       10.845210        5.568670
 H         4.293499       12.088850        5.593972
 H         2.476018        7.335205        5.625700
 H         2.085657        8.591744        6.404940
 H         2.135959       12.358079        6.404045
 H         2.558875       13.602103        5.599302
 H         5.655582        8.720272        0.269840
 H         5.679443        8.747230        1.813437
 H         4.316048        8.769034        5.532621
 H         5.649531        8.747993        4.746686
 H         1.750155       12.154726        8.656747
 H         0.401876       12.165604        7.892226
 H         1.784343       12.092390        4.128140
 H         1.312944       10.873937        3.305636
 H         2.207809       12.398672        1.880696
 H         3.542711       12.374729        1.099263
 H         3.504066        8.454691        1.100006
 H         2.160737        8.485073        1.870450
 H         6.569724        7.247916        3.230630
 H         7.444864        8.513348        3.305633
 H         6.559466        7.264556        7.870397
 H         6.075809        8.480291        7.048017
 H         6.031480       12.317080        7.081439
 H         6.035700       12.289310        8.633400
 H         1.267993       10.069337        7.872081
 H         0.366690        8.809852        7.844781
 H         0.398000        1.453539        3.265432
 H         1.746801        1.417745        2.493267
 H         5.604769        4.835757        0.240780
 H         4.276892        4.822798        1.042975
 H         7.416509        5.082592        3.244127
 H         6.079662        5.090047        2.439170
 H         3.505478        5.095194        5.487845
 H         5.643794        5.283350        4.619745
 H         3.471508        1.029306        5.536076
 H         2.146071        1.115095        4.749604
 H         2.123489        4.833369        6.397453
 H         2.094516        4.835621        4.647303
 H         5.202524        2.711529        1.089227
 H         5.660130        1.452671        1.862514
 H         5.246281        2.419053        5.642654
 H         5.704285        1.253889        4.760208
 H         1.401970        3.468403        7.686682
 H         1.912329        4.746969        8.428884
 H         1.405814        3.450613        3.344862
 H         1.843817        4.767909        2.615060
 H         2.096688        5.092373        0.343795
 H         2.543236        6.352427        1.120947
 H         2.640027       14.475777        1.068812
 H         3.514068        1.146960        1.075032
 H         7.436600        1.122431        3.324450
 H         6.553101       14.449851        3.287927
 H         6.103414        0.966426        7.102475
 H         6.553226       14.353517        7.914079
 H         6.203954        5.209505        7.110382
 H         7.525956        5.099822        7.884829
 H         1.711717        1.397837        7.002294
 H         0.371362        1.456359        7.777802
 H         9.102818        2.725711        3.369883
 H         9.548956        1.464885        4.145759
 H        13.445232        4.844836        1.831291
 H        13.456774        4.853534        0.283736
 H        13.804773        5.081693        4.132798
 H        15.157103        5.059766        3.396830
 H        13.378599        4.861399        6.357054
 H        12.038945        4.868514        5.585305
 H        10.380403       14.490566        5.601061
 H         9.932744        1.130565        6.403436
 H        10.355892        6.403656        5.622790
 H         9.938984        5.116478        6.374967
 H        12.011075        1.494632        1.092951
 H        12.925249        2.743120        1.076029
 H        12.040744        1.466724        5.571839
 H        12.921195        2.736506        5.564713
 H         9.617733        4.757249        8.642639
 H         9.142909        3.502723        7.869547
 H         9.571793        4.829648        2.550169
 H         9.544603        4.860199        4.097896
 H        11.288819        5.089590        1.043726
 H         9.939638        5.063585        0.289425
 H         9.895708        1.199756        1.871529
 H         9.873929        1.190773        0.320396
 H        13.770014        1.211011        2.549107
 H        13.792666        1.204742        4.094156
 H        13.775123        1.215582        8.605338
 H        13.755550        1.202187        7.055740
 H        15.216128        5.155959        7.739187
 H        14.320522        6.412130        7.804763
 H         8.223431        1.363924        7.900579
 H         9.563373        1.396233        8.665911
 H         0.390006        1.433388       12.323498
 H         1.729273        1.443352       13.089375
 H         5.243270        3.511238       10.063742
 H         5.709058        4.783067        9.325028
 H         6.484175        6.370705       12.296687
 H         6.041781        5.096279       11.540580
 H         5.666395        4.827267       15.320816
 H         5.674788        4.828501       13.776367
 H         2.571991       14.499632       14.564528
 H         2.103398        1.150427       15.340599
 H         2.189841        5.058807       13.708408
 H         3.517620        5.063545       14.502910
 H         4.313431        1.421270       10.056436
 H         5.669349        1.363475        9.319328
 H         5.143494        2.730005       14.542645
 H         4.231534        1.477529       14.541543
 H         1.321486        3.532419       16.774120
 H         1.783368        4.779777       15.988188
 H         0.440474        4.819600       12.251093
 H         1.301469        3.538655       12.238322
 H         2.158316        5.012997       10.700861
 H         3.522080        5.017363        9.976363
 H         2.128563        1.201039       10.833726
 H         2.136168        1.202893        9.288408
 H         6.019096        1.164002       13.110794
 H         6.037837        1.151435       11.567401
 H         6.001583        1.160972       17.535660
 H         5.981880        1.171467       15.990798
 H         6.534447        6.379784       16.770891
 H         7.411302        5.105309       16.783779
 H         1.729396        1.424328       17.576908
 H         0.376250        1.437081       16.826921
 H         9.531268        8.748334       13.113345
 H         9.098228       10.016438       12.344669
 H        12.954927       10.822281       10.083286
 H        12.067134       12.086663       10.090507
 H        15.183124       12.382263       12.297810
 H        13.838009       12.375888       11.538281
 H        13.458957       12.147041       13.803067
 H        13.461571       12.155728       15.352164
 H        11.285082        8.478097       14.568810
 H         9.950871        8.473257       15.344651
 H         9.956761       12.361773       15.360338
 H        11.305540       12.367916       14.597562
 H        13.404404        8.717000       10.876043
 H        12.057967        8.698842       10.114341
 H        12.977508       10.045919       14.591835
 H        13.418957        8.779202       15.359598
 H         9.524699       12.152072       17.601393
 H         8.186927       12.131295       16.821634
 H         9.584708       12.122067       11.551550
 H         9.585922       12.116380       13.099984
 H        10.406887       13.671425       10.084200
 H         9.951204       12.425114        9.291496
 H         9.906067        8.454760       10.871009
 H         9.921216        8.472318        9.326723
 H        15.172529        8.498287       12.347856
 H        13.834220        8.515539       13.126817
 H        14.282075        7.198503       16.785728
 H        15.164624        8.465484       16.805601
 H        15.181822       12.385990       16.846367
 H        13.839726       12.368398       17.616888
 H         9.531364        8.762096       17.586624
 H         9.110777       10.033436       16.815628
 H         1.804122        8.711624       13.076471
 H         1.792939        8.689860       11.530546
 H         5.670663       12.077938       10.892585
 H         5.185537       10.817970       10.135577
 H         6.538128       13.650163       12.337466
 H         7.445924       12.398908       12.328945
 H         5.193820       10.819147       14.526471
 H         5.664421       12.075850       13.760456
 H         2.141111        8.421518       15.341578
 H         2.579470        7.152456       14.569700
 H         3.514710       12.386868       14.529208
 H         2.175006       12.384936       13.762033
 H         4.278522        8.703971       10.051817
 H         5.621224        8.755702        9.288271
 H         5.619864        8.708422       13.742164
 H         4.287348        8.700884       14.529628
 H         1.789375       12.136694       16.024723
 H         1.806708       12.138675       17.570761
 H         1.787688       12.106137       11.523392
 H         1.345410       10.831736       12.280015
 H         3.543040       12.431684       10.088837
 H         2.648800       13.696216       10.078333
 H         2.137515        8.428901        9.261843
 H         2.593185        7.133588        9.967199
 H         7.388902        8.479290       12.293481
 H         6.050228        8.476104       11.513363
 H         7.411418        8.497322       16.744858
 H         6.070956        8.474455       15.967746
 H         6.039117       12.385136       15.994423
 H         6.469766       13.658623       16.753967
 H         1.767347        8.759175       17.585142
 H         1.328682       10.020109       16.809034
