384
 generated by VMD
 O         9.111794        1.803982       12.336155
 O        13.005385        4.492242       10.084392
 O        14.277168        5.445576       12.331517
 O        12.971483        4.511078       14.561720
 O        10.373398        0.859757       14.562529
 O        10.378628        5.380955       14.580484
 O        13.033307        1.749840       10.084599
 O        12.960701        1.765680       14.521281
 O         9.056612        4.477674       16.816532
 O         9.096057        4.542107       12.315465
 O        10.427094        5.422615       10.091146
 O        10.456208        0.862616       10.141423
 O        14.297378        0.824875       12.320230
 O        14.196826        0.892003       16.796301
 O        14.263720        5.426100       16.797413
 O         9.075664        1.755534       16.822088
 O         9.126264        9.063272        3.367326
 O        12.957951       11.763083        1.064264
 O        14.215963       12.702188        3.324052
 O        12.975183       11.788910        5.595147
 O        10.382972        8.163386        5.611500
 O        10.387601       12.710840        5.601438
 O        12.965153        9.030572        1.108846
 O        12.974162        9.056841        5.609589
 O         9.103394       11.814898        7.856084
 O         9.146533       11.809508        3.313205
 O        10.392374       12.676299        1.057567
 O        10.375347        8.113972        1.112772
 O        14.252502        8.146232        3.357893
 O        14.284099        8.142002        7.826371
 O        14.278865       12.710523        7.833283
 O         9.104145        9.073777        7.862144
 O         1.309251        9.052009        3.303599
 O         5.211120       11.879851        1.074548
 O         6.463812       12.721370        3.274896
 O         5.208538       11.817757        5.463939
 O         2.626286        8.179953        5.558877
 O         2.562037       12.612473        5.549714
 O         5.202474        9.112134        1.080220
 O         5.227493        9.093916        5.596926
 O         1.323605       11.781847        7.838375
 O         1.277947       11.788365        3.277250
 O         2.609073       12.706347        1.056799
 O         2.612159        8.172681        1.056561
 O         6.516012        8.266294        3.317332
 O         6.495933        8.233850        7.867988
 O         6.509222       12.728833        7.797810
 O         1.340191        9.045485        7.816294
 O         1.194705        1.763051        3.295810
 O         5.126367        4.564267        1.060185
 O         6.455154        5.536042        3.265430
 O         5.296532        4.706971        5.589683
 O         2.423738        0.747238        5.508195
 O         2.612849        5.446379        5.583330
 O         5.158531        1.863936        0.969841
 O         5.038382        1.194114        5.359489
 O         1.302920        4.504510        7.809071
 O         1.278544        4.514540        3.368678
 O         2.543140        5.438523        1.105846
 O         2.550725        0.843223        1.059487
 O         6.635369        0.591445        3.381127
 O         6.618606        0.893147        7.905746
 O         6.542655        5.510608        7.947801
 O         1.333861        1.761120        7.805821
 O         8.922498        1.484921        3.378650
 O        12.969771        4.515602        1.098662
 O        14.236772        5.412081        3.361337
 O        12.914595        4.494202        5.592638
 O        10.342361        0.863553        5.581608
 O        10.330714        5.420893        5.569493
 O        12.864093        1.771322        1.075683
 O        12.933311        1.752167        5.591908
 O         9.128755        4.525627        7.871151
 O         9.025780        4.490624        3.294082
 O        10.382405        5.373723        1.093464
 O        10.312003        0.800763        1.184102
 O        14.164887        0.840093        3.305347
 O        14.280659        0.847770        7.808058
 O        14.244618        5.408137        7.808425
 O         9.185178        1.778853        7.895837
 O         1.329981        1.775998       12.331847
 O         5.172732        4.501147       10.108208
 O         6.502923        5.436485       12.302416
 O         5.215797        4.526086       14.553188
 O         2.624180        0.859506       14.567061
 O         2.616037        5.403769       14.569122
 O         5.214429        1.757337       10.133411
 O         5.212341        1.784967       14.512672
 O         1.299108        4.490053       16.791655
 O         1.318506        4.511212       12.324270
 O         2.578966        5.402830       10.064654
 O         2.612112        0.874397       10.074907
 O         6.545091        0.841724       12.335779
 O         6.504443        0.863837       16.728462
 O         6.494643        5.449794       16.797955
 O         1.265734        1.757097       16.767305
 O         9.140593        9.042068       12.346323
 O        12.986838       11.807366       10.070170
 O        14.309800       12.691218       12.302318
 O        12.993193       11.832514       14.538878
 O        10.424052        8.122808       14.600078
 O        10.403809       12.727883       14.561238
 O        12.987533        9.071521       10.069111
 O        12.983292        9.094518       14.573982
 O         9.078472       11.800433       16.768209
 O         9.099646       11.782475       12.339019
 O        10.399887       12.714854       10.104224
 O        10.416934        8.153405       10.088511
 O        14.274683        8.190921       12.325802
 O        14.268724        8.161672       16.808563
 O        14.244486       12.746364       16.791502
 O         9.090254        9.048712       16.822100
 O         1.345737        9.046440       12.302745
 O         5.218492       11.840008       10.075484
 O         6.523868       12.712909       12.303349
 O         5.196286       11.804702       14.525285
 O         2.625189        8.140626       14.548504
 O         2.612261       12.721224       14.523041
 O         5.195077        9.104344       10.116410
 O         5.201726        9.071652       14.535227
 O         1.296141       11.837102       16.765293
 O         1.352411       11.780412       12.278974
 O         2.628269       12.729122       10.051098
 O         2.632854        8.146325       10.056350
 O         6.537395        8.171806       12.322733
 O         6.492793        8.190729       16.786133
 O         6.476597       12.726145       16.756544
 O         1.315625        9.089800       16.770447
 H         9.116294        2.766772       12.300751
 H         9.587343        1.494361       11.557439
 H        13.459646        4.807477       10.872465
 H        13.031990        3.530008       10.112231
 H        14.262374        6.408341       12.348265
 H        13.812047        5.146217       13.119640
 H        12.953380        3.548612       14.540578
 H        12.052399        4.800033       14.566723
 H         9.914184        1.184313       15.342983
 H         9.904376        1.207231       13.795188
 H         9.899681        5.044559       15.344595
 H         9.907681        5.077410       13.796459
 H        13.489614        1.426400        9.300693
 H        13.508978        1.407025       10.849247
 H        12.055602        1.437282       14.506938
 H        13.401463        1.419540       13.737904
 H         8.158913        4.826792       16.840078
 H         9.507268        4.813285       17.599262
 H         8.190561        4.868048       12.279092
 H         9.546373        4.871157       11.529603
 H        11.328192        5.082535       10.077881
 H         9.995127        5.096450        9.293317
 H        11.377454        1.145482       10.127748
 H        10.458035       14.502105       10.130001
 H        15.208418        1.138180       12.332514
 H        14.332056       14.464194       12.316944
 H        15.106221        1.208268       16.771568
 H        13.774334        1.210854       15.990894
 H        13.820724        5.093998       16.008951
 H        15.164500        5.085495       16.773300
 H         9.508059        1.448950       17.623405
 H         9.082276        2.719958       16.848892
 H         9.574458        8.761827        4.166396
 H         9.165846       10.023923        3.373826
 H        13.422932       12.075314        0.280643
 H        12.983220       10.799835        1.049125
 H        13.760624       12.366761        4.104038
 H        13.754128       12.351717        2.555706
 H        12.061227       12.090184        5.605939
 H        12.952607       10.825435        5.604569
 H         9.949235        8.488405        6.408090
 H        11.293595        8.476369        5.639173
 H        10.371020       13.673248        5.589809
 H         9.948228       12.419673        4.797375
 H        12.060446        8.701381        1.129175
 H        13.398847        8.709118        1.907149
 H        13.454173        8.725804        6.377127
 H        13.437351        8.728800        4.831392
 H         8.199389       12.142380        7.818441
 H         9.540946       12.135492        7.060621
 H         8.238237       12.105416        3.272404
 H         9.577714       12.118048        2.506346
 H        11.294898       12.335836        1.033864
 H         9.950045       12.356067        0.263198
 H         9.917774        8.451205        1.889684
 H         9.906294        8.454071        0.343115
 H        14.271332        7.182807        3.363323
 H        15.169098        8.441506        3.337528
 H        14.295467        7.178646        7.820635
 H        15.201968        8.433584        7.828015
 H        13.802816       12.384719        8.605110
 H        13.811913       12.378079        7.059546
 H         8.182520        8.792047        7.863985
 H         9.092583       10.036696        7.863215
 H         1.770370        8.758430        2.510885
 H         1.299071       10.014547        3.271621
 H         4.293862       12.177635        1.041878
 H         5.638160       12.187407        0.265191
 H         5.994498       12.409027        2.481452
 H         5.997486       12.365978        4.052170
 H         5.212235       10.853446        5.519358
 H         4.283317       12.085100        5.498860
 H         2.153167        8.501394        4.784529
 H         2.152840        8.501796        6.333887
 H         2.481472       13.570786        5.554622
 H         2.131405       12.308100        6.357291
 H         5.667385        8.823468        1.873966
 H         5.212465       10.072734        1.095899
 H         4.324615        8.758794        5.602117
 H         5.650836        8.771582        6.400983
 H         1.769906       12.131269        8.617545
 H         0.419237       12.112871        7.861268
 H         1.709932       12.079197        4.087648
 H         0.375168       12.121856        3.310458
 H         2.135836       12.386115        0.280130
 H         2.134289       12.375314        1.827218
 H         2.179181        8.509346        0.264457
 H         3.516823        8.500288        1.043827
 H         6.088805        8.558898        4.129364
 H         7.431161        8.565590        3.357788
 H         6.038627        8.539698        8.658726
 H         6.506677        7.271245        7.921666
 H         6.526819       13.690543        7.795378
 H         6.057093       12.454093        6.996866
 H         1.340245       10.008072        7.850278
 H         1.803936        8.743940        8.605188
 H         0.287530        1.438124        3.257864
 H         1.642669        1.437030        2.510070
 H         4.215562        4.880235        1.096922
 H         5.567626        4.903263        1.847061
 H         7.356791        5.201365        3.271835
 H         6.511403        6.498709        3.265890
 H         5.713718        5.020276        4.774055
 H         5.507005        3.781658        5.627121
 H         2.038512        1.130918        6.305181
 H         1.953275        1.112628        4.749311
 H         2.626004        6.410422        5.572947
 H         3.531248        5.166273        5.591212
 H         5.148642        2.832449        1.009910
 H         5.625959        1.577637        1.744649
 H         6.084849        0.890514        4.129009
 H         4.082388        0.989194        5.392345
 H         0.394519        4.823042        7.780287
 H         1.744882        4.845795        7.024798
 H         1.760556        4.800009        4.152016
 H         1.275117        3.552261        3.370202
 H         2.093905        5.148983        1.906607
 H         2.543424        6.401927        1.110145
 H         2.599951       14.482780        1.061930
 H         3.452054        1.170553        1.037566
 H         7.611705        0.959316        3.419831
 H         6.583989       14.168751        3.330415
 H         6.219705        1.274546        7.133520
 H         7.533407        1.209222        7.906852
 H         6.089926        5.240758        7.145553
 H         6.045773        5.138918        8.685078
 H         1.338134        2.724503        7.821955
 H         1.794052        1.470374        8.600441
 H         9.445859        1.221913        2.602087
 H         9.444260        1.278189        4.172601
 H        13.435714        4.838822        1.877437
 H        13.443052        4.846955        0.327869
 H        13.788129        5.081769        4.146857
 H        15.141073        5.080910        3.397360
 H        12.893245        3.531716        5.593793
 H        11.999886        4.794930        5.578935
 H         9.930114        1.194093        6.388965
 H        11.250637        1.188423        5.589835
 H         9.863114        5.124996        4.784406
 H        10.330412        6.383906        5.555067
 H        13.331822        1.479416        0.284898
 H        12.906724        2.733880        1.075277
 H        13.420817        1.424005        6.355456
 H        13.386163        1.424850        4.808176
 H         9.525033        4.842571        7.052658
 H         8.224528        4.854625        7.881563
 H         9.518489        4.740524        2.502649
 H         8.968167        3.538964        3.305418
 H        10.391303        6.337092        1.106695
 H        11.304234        5.091413        1.092478
 H        11.214694        1.141098        1.156541
 H        10.377358       14.442524        1.120778
 H        14.161118       14.478971        3.288409
 H        13.693751        1.138858        2.520530
 H        15.195991        1.146795        7.806211
 H        14.301644       14.486844        7.813955
 H        13.795972        5.077874        8.593812
 H        13.753754        5.080300        7.047253
 H         9.647769        1.487489        8.689699
 H         9.171212        2.742276        7.909728
 H         1.791286        1.482622       13.124384
 H         1.328385        2.739433       12.348316
 H         4.253453        4.787403       10.090258
 H         5.167089        3.538173       10.113030
 H         6.019413        5.100025       11.539516
 H         6.043075        5.111142       13.083206
 H         4.307751        4.846255       14.578868
 H         5.651108        4.865819       15.342227
 H         3.538470        1.160615       14.550850
 H         2.645007       14.498796       14.542366
 H         2.148475        5.085155       13.789378
 H         2.142912        5.064726       15.336397
 H         5.688648        1.428892       10.905778
 H         5.706419        1.451365        9.367135
 H         5.677409        1.484376       15.300560
 H         5.218852        2.748202       14.540037
 H         1.740072        4.794706       17.591497
 H         1.305768        3.526963       16.813982
 H         1.747114        4.834049       11.523778
 H         0.417441        4.851521       12.310500
 H         2.127182        5.109653        9.266197
 H         2.594271        6.365417       10.037563
 H         2.177035        1.200781       10.869639
 H         3.520654        1.191509       10.108712
 H         6.095045        1.187320       13.114952
 H         7.440807        1.195467       12.350273
 H         6.048209        1.229589       17.490952
 H         7.412739        1.185362       16.771093
 H         6.488899        6.413100       16.808723
 H         6.003426        5.164047       17.575235
 H         1.752424        1.430831       16.002338
 H         1.719713        1.414500       17.544001
 H         9.607759        8.704618       13.117293
 H         9.609416        8.719846       11.568759
 H        12.961683       10.844126       10.067998
 H        12.071545       12.107181       10.086014
 H        15.211470       12.352565       12.272738
 H        13.865670       12.372617       11.509065
 H        13.461339       12.111236       13.744064
 H        12.995588       10.869096       14.537372
 H         9.950118        8.424802       15.381737
 H        10.402133        7.160021       14.617717
 H        10.412735       13.691158       14.557582
 H        11.322904       12.439547       14.553419
 H        13.427392        8.736497        9.280817
 H        12.085207        8.733171       10.048613
 H        12.086378        8.744013       14.600029
 H        13.427584        8.761792       15.361273
 H         9.523394       12.134202       15.981029
 H         8.175881       12.132726       16.740351
 H         9.123507       10.819804       12.364264
 H         9.564144       12.092439       13.123494
 H         9.929642       12.375762       10.872984
 H         9.927017       12.399834        9.326992
 H        10.411079        7.189877       10.064065
 H         9.944207        8.454987        9.305216
 H        13.808475        8.515059       11.547737
 H        13.806722        8.529603       13.096018
 H        14.264910        7.198059       16.813532
 H        13.809053        8.441729       17.607258
 H        13.798735       12.449411       15.990227
 H        14.211335       13.708936       16.785131
 H         9.073887       10.010720       16.799072
 H         8.170801        8.761102       16.803057
 H         0.434767        8.734664       12.327868
 H         1.775808        8.713059       13.097484
 H         5.683969       12.154445        9.295183
 H         5.699651       12.171648       10.842349
 H         6.556796       13.676028       12.320829
 H         7.435716       12.402474       12.320429
 H         5.661616       12.100836       13.735353
 H         5.206849       10.841036       14.509144
 H         2.163835        8.455001       15.332882
 H         2.610262        7.177885       14.582913
 H         2.184914       12.385869       13.727203
 H         3.514669       12.384757       14.509558
 H         5.208729       10.067316       10.128933
 H         5.675890        8.805974       10.895542
 H         4.301416        8.730089       14.509251
 H         5.653725        8.736884       13.752731
 H         0.396261       12.180823       16.750282
 H         1.733429       12.161140       15.970583
 H         1.808065       12.085134       11.486871
 H         1.368868       10.817123       12.263936
 H         3.548018       12.442664       10.057866
 H         2.639263       13.692211       10.062831
 H         3.534297        8.484367       10.091714
 H         2.190093        8.464274       10.850325
 H         6.545974        7.208392       12.307924
 H         7.457477        8.456134       12.331859
 H         6.023680        8.526544       17.556984
 H         6.021009        8.508958       16.008696
 H         6.023276       12.416180       15.963785
 H         6.472618       13.688361       16.721416
 H         1.283564       10.052046       16.760406
 H         0.402545        8.782906       16.784004
384
 generated by VMD
 O         9.111794        1.803982       12.336155
 O        13.005385        4.492242       10.084392
 O        14.277168        5.445576       12.331517
 O        12.971483        4.511078       14.561720
 O        10.373398        0.859757       14.562529
 O        10.378628        5.380955       14.580484
 O        13.033307        1.749840       10.084599
 O        12.960701        1.765680       14.521281
 O         9.056612        4.477674       16.816532
 O         9.096057        4.542107       12.315465
 O        10.427094        5.422615       10.091146
 O        10.456208        0.862616       10.141423
 O        14.297378        0.824875       12.320230
 O        14.196826        0.892003       16.796301
 O        14.263720        5.426100       16.797413
 O         9.075664        1.755534       16.822088
 O         9.126264        9.063272        3.367326
 O        12.957951       11.763083        1.064264
 O        14.215963       12.702188        3.324052
 O        12.975183       11.788910        5.595147
 O        10.382972        8.163386        5.611500
 O        10.387601       12.710840        5.601438
 O        12.965153        9.030572        1.108846
 O        12.974162        9.056841        5.609589
 O         9.103394       11.814898        7.856084
 O         9.146533       11.809508        3.313205
 O        10.392374       12.676299        1.057567
 O        10.375347        8.113972        1.112772
 O        14.252502        8.146232        3.357893
 O        14.284099        8.142002        7.826371
 O        14.278865       12.710523        7.833283
 O         9.104145        9.073777        7.862144
 O         1.309251        9.052009        3.303599
 O         5.211120       11.879851        1.074548
 O         6.463812       12.721370        3.274896
 O         5.208538       11.817757        5.463939
 O         2.626286        8.179953        5.558877
 O         2.562037       12.612473        5.549714
 O         5.202474        9.112134        1.080220
 O         5.227493        9.093916        5.596926
 O         1.323605       11.781847        7.838375
 O         1.277947       11.788365        3.277250
 O         2.609073       12.706347        1.056799
 O         2.612159        8.172681        1.056561
 O         6.516012        8.266294        3.317332
 O         6.495933        8.233850        7.867988
 O         6.509222       12.728833        7.797810
 O         1.340191        9.045485        7.816294
 O         1.194705        1.763051        3.295810
 O         5.126367        4.564267        1.060185
 O         6.455154        5.536042        3.265430
 O         5.296532        4.706971        5.589683
 O         2.423738        0.747238        5.508195
 O         2.612849        5.446379        5.583330
 O         5.158531        1.863936        0.969841
 O         5.038382        1.194114        5.359489
 O         1.302920        4.504510        7.809071
 O         1.278544        4.514540        3.368678
 O         2.543140        5.438523        1.105846
 O         2.550725        0.843223        1.059487
 O         6.635369        0.591445        3.381127
 O         6.618606        0.893147        7.905746
 O         6.542655        5.510608        7.947801
 O         1.333861        1.761120        7.805821
 O         8.922498        1.484921        3.378650
 O        12.969771        4.515602        1.098662
 O        14.236772        5.412081        3.361337
 O        12.914595        4.494202        5.592638
 O        10.342361        0.863553        5.581608
 O        10.330714        5.420893        5.569493
 O        12.864093        1.771322        1.075683
 O        12.933311        1.752167        5.591908
 O         9.128755        4.525627        7.871151
 O         9.025780        4.490624        3.294082
 O        10.382405        5.373723        1.093464
 O        10.312003        0.800763        1.184102
 O        14.164887        0.840093        3.305347
 O        14.280659        0.847770        7.808058
 O        14.244618        5.408137        7.808425
 O         9.185178        1.778853        7.895837
 O         1.329981        1.775998       12.331847
 O         5.172732        4.501147       10.108208
 O         6.502923        5.436485       12.302416
 O         5.215797        4.526086       14.553188
 O         2.624180        0.859506       14.567061
 O         2.616037        5.403769       14.569122
 O         5.214429        1.757337       10.133411
 O         5.212341        1.784967       14.512672
 O         1.299108        4.490053       16.791655
 O         1.318506        4.511212       12.324270
 O         2.578966        5.402830       10.064654
 O         2.612112        0.874397       10.074907
 O         6.545091        0.841724       12.335779
 O         6.504443        0.863837       16.728462
 O         6.494643        5.449794       16.797955
 O         1.265734        1.757097       16.767305
 O         9.140593        9.042068       12.346323
 O        12.986838       11.807366       10.070170
 O        14.309800       12.691218       12.302318
 O        12.993193       11.832514       14.538878
 O        10.424052        8.122808       14.600078
 O        10.403809       12.727883       14.561238
 O        12.987533        9.071521       10.069111
 O        12.983292        9.094518       14.573982
 O         9.078472       11.800433       16.768209
 O         9.099646       11.782475       12.339019
 O        10.399887       12.714854       10.104224
 O        10.416934        8.153405       10.088511
 O        14.274683        8.190921       12.325802
 O        14.268724        8.161672       16.808563
 O        14.244486       12.746364       16.791502
 O         9.090254        9.048712       16.822100
 O         1.345737        9.046440       12.302745
 O         5.218492       11.840008       10.075484
 O         6.523868       12.712909       12.303349
 O         5.196286       11.804702       14.525285
 O         2.625189        8.140626       14.548504
 O         2.612261       12.721224       14.523041
 O         5.195077        9.104344       10.116410
 O         5.201726        9.071652       14.535227
 O         1.296141       11.837102       16.765293
 O         1.352411       11.780412       12.278974
 O         2.628269       12.729122       10.051098
 O         2.632854        8.146325       10.056350
 O         6.537395        8.171806       12.322733
 O         6.492793        8.190729       16.786133
 O         6.476597       12.726145       16.756544
 O         1.315625        9.089800       16.770447
 H         9.116294        2.766772       12.300751
 H         9.587343        1.494361       11.557439
 H        13.459646        4.807477       10.872465
 H        13.031990        3.530008       10.112231
 H        14.262374        6.408341       12.348265
 H        13.812047        5.146217       13.119640
 H        12.953380        3.548612       14.540578
 H        12.052399        4.800033       14.566723
 H         9.914184        1.184313       15.342983
 H         9.904376        1.207231       13.795188
 H         9.899681        5.044559       15.344595
 H         9.907681        5.077410       13.796459
 H        13.489614        1.426400        9.300693
 H        13.508978        1.407025       10.849247
 H        12.055602        1.437282       14.506938
 H        13.401463        1.419540       13.737904
 H         8.158913        4.826792       16.840078
 H         9.507268        4.813285       17.599262
 H         8.190561        4.868048       12.279092
 H         9.546373        4.871157       11.529603
 H        11.328192        5.082535       10.077881
 H         9.995127        5.096450        9.293317
 H        11.377454        1.145482       10.127748
 H        10.458035       14.502105       10.130001
 H        15.208418        1.138180       12.332514
 H        14.332056       14.464194       12.316944
 H        15.106221        1.208268       16.771568
 H        13.774334        1.210854       15.990894
 H        13.820724        5.093998       16.008951
 H        15.164500        5.085495       16.773300
 H         9.508059        1.448950       17.623405
 H         9.082276        2.719958       16.848892
 H         9.574458        8.761827        4.166396
 H         9.165846       10.023923        3.373826
 H        13.422932       12.075314        0.280643
 H        12.983220       10.799835        1.049125
 H        13.760624       12.366761        4.104038
 H        13.754128       12.351717        2.555706
 H        12.061227       12.090184        5.605939
 H        12.952607       10.825435        5.604569
 H         9.949235        8.488405        6.408090
 H        11.293595        8.476369        5.639173
 H        10.371020       13.673248        5.589809
 H         9.948228       12.419673        4.797375
 H        12.060446        8.701381        1.129175
 H        13.398847        8.709118        1.907149
 H        13.454173        8.725804        6.377127
 H        13.437351        8.728800        4.831392
 H         8.199389       12.142380        7.818441
 H         9.540946       12.135492        7.060621
 H         8.238237       12.105416        3.272404
 H         9.577714       12.118048        2.506346
 H        11.294898       12.335836        1.033864
 H         9.950045       12.356067        0.263198
 H         9.917774        8.451205        1.889684
 H         9.906294        8.454071        0.343115
 H        14.271332        7.182807        3.363323
 H        15.169098        8.441506        3.337528
 H        14.295467        7.178646        7.820635
 H        15.201968        8.433584        7.828015
 H        13.802816       12.384719        8.605110
 H        13.811913       12.378079        7.059546
 H         8.182520        8.792047        7.863985
 H         9.092583       10.036696        7.863215
 H         1.770370        8.758430        2.510885
 H         1.299071       10.014547        3.271621
 H         4.293862       12.177635        1.041878
 H         5.638160       12.187407        0.265191
 H         5.994498       12.409027        2.481452
 H         5.997486       12.365978        4.052170
 H         5.212235       10.853446        5.519358
 H         4.283317       12.085100        5.498860
 H         2.153167        8.501394        4.784529
 H         2.152840        8.501796        6.333887
 H         2.481472       13.570786        5.554622
 H         2.131405       12.308100        6.357291
 H         5.667385        8.823468        1.873966
 H         5.212465       10.072734        1.095899
 H         4.324615        8.758794        5.602117
 H         5.650836        8.771582        6.400983
 H         1.769906       12.131269        8.617545
 H         0.419237       12.112871        7.861268
 H         1.709932       12.079197        4.087648
 H         0.375168       12.121856        3.310458
 H         2.135836       12.386115        0.280130
 H         2.134289       12.375314        1.827218
 H         2.179181        8.509346        0.264457
 H         3.516823        8.500288        1.043827
 H         6.088805        8.558898        4.129364
 H         7.431161        8.565590        3.357788
 H         6.038627        8.539698        8.658726
 H         6.506677        7.271245        7.921666
 H         6.526819       13.690543        7.795378
 H         6.057093       12.454093        6.996866
 H         1.340245       10.008072        7.850278
 H         1.803936        8.743940        8.605188
 H         0.287530        1.438124        3.257864
 H         1.642669        1.437030        2.510070
 H         4.215562        4.880235        1.096922
 H         5.567626        4.903263        1.847061
 H         7.356791        5.201365        3.271835
 H         6.511403        6.498709        3.265890
 H         5.713718        5.020276        4.774055
 H         5.507005        3.781658        5.627121
 H         2.038512        1.130918        6.305181
 H         1.953275        1.112628        4.749311
 H         2.626004        6.410422        5.572947
 H         3.531248        5.166273        5.591212
 H         5.148642        2.832449        1.009910
 H         5.625959        1.577637        1.744649
 H         6.084849        0.890514        4.129009
 H         4.082388        0.989194        5.392345
 H         0.394519        4.823042        7.780287
 H         1.744882        4.845795        7.024798
 H         1.760556        4.800009        4.152016
 H         1.275117        3.552261        3.370202
 H         2.093905        5.148983        1.906607
 H         2.543424        6.401927        1.110145
 H         2.599951       14.482780        1.061930
 H         3.452054        1.170553        1.037566
 H         7.611705        0.959316        3.419831
 H         6.583989       14.168751        3.330415
 H         6.219705        1.274546        7.133520
 H         7.533407        1.209222        7.906852
 H         6.089926        5.240758        7.145553
 H         6.045773        5.138918        8.685078
 H         1.338134        2.724503        7.821955
 H         1.794052        1.470374        8.600441
 H         9.445859        1.221913        2.602087
 H         9.444260        1.278189        4.172601
 H        13.435714        4.838822        1.877437
 H        13.443052        4.846955        0.327869
 H        13.788129        5.081769        4.146857
 H        15.141073        5.080910        3.397360
 H        12.893245        3.531716        5.593793
 H        11.999886        4.794930        5.578935
 H         9.930114        1.194093        6.388965
 H        11.250637        1.188423        5.589835
 H         9.863114        5.124996        4.784406
 H        10.330412        6.383906        5.555067
 H        13.331822        1.479416        0.284898
 H        12.906724        2.733880        1.075277
 H        13.420817        1.424005        6.355456
 H        13.386163        1.424850        4.808176
 H         9.525033        4.842571        7.052658
 H         8.224528        4.854625        7.881563
 H         9.518489        4.740524        2.502649
 H         8.968167        3.538964        3.305418
 H        10.391303        6.337092        1.106695
 H        11.304234        5.091413        1.092478
 H        11.214694        1.141098        1.156541
 H        10.377358       14.442524        1.120778
 H        14.161118       14.478971        3.288409
 H        13.693751        1.138858        2.520530
 H        15.195991        1.146795        7.806211
 H        14.301644       14.486844        7.813955
 H        13.795972        5.077874        8.593812
 H        13.753754        5.080300        7.047253
 H         9.647769        1.487489        8.689699
 H         9.171212        2.742276        7.909728
 H         1.791286        1.482622       13.124384
 H         1.328385        2.739433       12.348316
 H         4.253453        4.787403       10.090258
 H         5.167089        3.538173       10.113030
 H         6.019413        5.100025       11.539516
 H         6.043075        5.111142       13.083206
 H         4.307751        4.846255       14.578868
 H         5.651108        4.865819       15.342227
 H         3.538470        1.160615       14.550850
 H         2.645007       14.498796       14.542366
 H         2.148475        5.085155       13.789378
 H         2.142912        5.064726       15.336397
 H         5.688648        1.428892       10.905778
 H         5.706419        1.451365        9.367135
 H         5.677409        1.484376       15.300560
 H         5.218852        2.748202       14.540037
 H         1.740072        4.794706       17.591497
 H         1.305768        3.526963       16.813982
 H         1.747114        4.834049       11.523778
 H         0.417441        4.851521       12.310500
 H         2.127182        5.109653        9.266197
 H         2.594271        6.365417       10.037563
 H         2.177035        1.200781       10.869639
 H         3.520654        1.191509       10.108712
 H         6.095045        1.187320       13.114952
 H         7.440807        1.195467       12.350273
 H         6.048209        1.229589       17.490952
 H         7.412739        1.185362       16.771093
 H         6.488899        6.413100       16.808723
 H         6.003426        5.164047       17.575235
 H         1.752424        1.430831       16.002338
 H         1.719713        1.414500       17.544001
 H         9.607759        8.704618       13.117293
 H         9.609416        8.719846       11.568759
 H        12.961683       10.844126       10.067998
 H        12.071545       12.107181       10.086014
 H        15.211470       12.352565       12.272738
 H        13.865670       12.372617       11.509065
 H        13.461339       12.111236       13.744064
 H        12.995588       10.869096       14.537372
 H         9.950118        8.424802       15.381737
 H        10.402133        7.160021       14.617717
 H        10.412735       13.691158       14.557582
 H        11.322904       12.439547       14.553419
 H        13.427392        8.736497        9.280817
 H        12.085207        8.733171       10.048613
 H        12.086378        8.744013       14.600029
 H        13.427584        8.761792       15.361273
 H         9.523394       12.134202       15.981029
 H         8.175881       12.132726       16.740351
 H         9.123507       10.819804       12.364264
 H         9.564144       12.092439       13.123494
 H         9.929642       12.375762       10.872984
 H         9.927017       12.399834        9.326992
 H        10.411079        7.189877       10.064065
 H         9.944207        8.454987        9.305216
 H        13.808475        8.515059       11.547737
 H        13.806722        8.529603       13.096018
 H        14.264910        7.198059       16.813532
 H        13.809053        8.441729       17.607258
 H        13.798735       12.449411       15.990227
 H        14.211335       13.708936       16.785131
 H         9.073887       10.010720       16.799072
 H         8.170801        8.761102       16.803057
 H         0.434767        8.734664       12.327868
 H         1.775808        8.713059       13.097484
 H         5.683969       12.154445        9.295183
 H         5.699651       12.171648       10.842349
 H         6.556796       13.676028       12.320829
 H         7.435716       12.402474       12.320429
 H         5.661616       12.100836       13.735353
 H         5.206849       10.841036       14.509144
 H         2.163835        8.455001       15.332882
 H         2.610262        7.177885       14.582913
 H         2.184914       12.385869       13.727203
 H         3.514669       12.384757       14.509558
 H         5.208729       10.067316       10.128933
 H         5.675890        8.805974       10.895542
 H         4.301416        8.730089       14.509251
 H         5.653725        8.736884       13.752731
 H         0.396261       12.180823       16.750282
 H         1.733429       12.161140       15.970583
 H         1.808065       12.085134       11.486871
 H         1.368868       10.817123       12.263936
 H         3.548018       12.442664       10.057866
 H         2.639263       13.692211       10.062831
 H         3.534297        8.484367       10.091714
 H         2.190093        8.464274       10.850325
 H         6.545974        7.208392       12.307924
 H         7.457477        8.456134       12.331859
 H         6.023680        8.526544       17.556984
 H         6.021009        8.508958       16.008696
 H         6.023276       12.416180       15.963785
 H         6.472618       13.688361       16.721416
 H         1.283564       10.052046       16.760406
 H         0.402545        8.782906       16.784004
