384
 generated by VMD
 O         9.111646        1.751108       12.330274
 O        12.965003        4.479124       10.040764
 O        14.258100        5.407037       12.276016
 O        12.975704        4.540153       14.544140
 O        10.408446        0.890045       14.573249
 O        10.381577        5.419353       14.547180
 O        12.946934        1.728441       10.064634
 O        12.984377        1.805129       14.580454
 O         9.074605        4.496865       16.772638
 O         9.095807        4.496037       12.313560
 O        10.387595        5.403363       10.070750
 O        10.362652        0.831166       10.085785
 O        14.247256        0.879685       12.330551
 O        14.279428        0.854830       16.797987
 O        14.238690        5.446913       16.798252
 O         9.079852        1.757084       16.809393
 O         9.090705        9.071532        3.347455
 O        12.958244       11.821223        1.110679
 O        14.109134       12.837515        3.379119
 O        12.906640       11.822050        5.632903
 O        10.386656        8.142768        5.582098
 O        10.320462       12.722469        5.609983
 O        12.949457        9.070598        1.096353
 O        12.974717        9.063848        5.602935
 O         9.056517       11.801285        7.850758
 O         9.032089       11.813962        3.375836
 O        10.358414       12.706350        1.117299
 O        10.362938        8.155328        1.087321
 O        14.236653        8.155207        3.330814
 O        14.283053        8.183821        7.858561
 O        14.380575       12.664374        7.789899
 O         9.086832        9.059242        7.811331
 O         1.309885        8.901712        3.274667
 O         5.287509       11.783352        1.035474
 O         6.365684       12.674694        3.412282
 O         4.957349       11.766773        5.529875
 O         2.635312        8.082236        5.610263
 O         2.613853       12.515984        5.714407
 O         5.238721        9.036076        1.046891
 O         5.188874        9.102420        5.614814
 O         1.380117       11.730512        7.712039
 O         1.072565       12.014647        3.672749
 O         2.732985       12.661574        0.989180
 O         2.646793        8.077974        0.986354
 O         6.511652        8.171115        3.328369
 O         6.496130        8.181375        7.840012
 O         6.455185       12.740358        7.810182
 O         1.389255        9.073813        7.852300
 O         1.293429        1.795070        3.286776
 O         5.214135        4.486238        1.058709
 O         6.502504        5.430393        3.288352
 O         5.247337        4.584028        5.557379
 O         2.603977        1.025882        5.644870
 O         2.621702        5.367309        5.576504
 O         5.245592        1.742768        1.094466
 O         5.250641        1.864461        5.596293
 O         1.321355        4.519289        7.832704
 O         1.299463        4.530184        3.330689
 O         2.614596        5.349062        1.057547
 O         2.653185        0.864707        1.084743
 O         6.499928        0.813214        3.367660
 O         6.522154        0.854515        7.801048
 O         6.512656        5.437412        7.818537
 O         1.288206        1.775176        7.882623
 O         9.079982        1.728820        3.362685
 O        12.942563        4.533222        1.075915
 O        14.238315        5.407226        3.328115
 O        12.976397        4.509211        5.592604
 O        10.384941        0.852991        5.616554
 O        10.376990        5.396274        5.571504
 O        12.941025        1.801882        1.056162
 O        12.971740        1.771003        5.622196
 O         9.087008        4.512518        7.831387
 O         9.078902        4.471374        3.327411
 O        10.346576        5.412884        1.081326
 O        10.365634        0.848108        1.112382
 O        14.193487        0.947397        3.312053
 O        14.264359        0.804853        7.847654
 O        14.271362        5.434742        7.830528
 O         9.097972        1.778014        7.848070
 O         1.310390        1.767317       12.308227
 O         5.210938        4.489716       10.046361
 O         6.498666        5.393781       12.304900
 O         5.187207        4.506272       14.535120
 O         2.628801        0.864213       14.527521
 O         2.587931        5.395863       14.554301
 O         5.218048        1.740798       10.057760
 O         5.218742        1.770658       14.532633
 O         1.278339        4.482017       16.785057
 O         1.304443        4.504543       12.294089
 O         2.635593        5.421930       10.074374
 O         2.632021        0.850592       10.088647
 O         6.525033        0.850034       12.288734
 O         6.499880        0.827093       16.778347
 O         6.488581        5.408655       16.758055
 O         1.340573        1.749411       16.772383
 O         9.101186        9.064264       12.300306
 O        12.986339       11.813256       10.062573
 O        14.265206       12.743549       12.275393
 O        12.979421       11.807720       14.521365
 O        10.370070        8.151270       14.553117
 O        10.410957       12.754435       14.545995
 O        12.965702        9.075758       10.082991
 O        12.957487        9.069178       14.537132
 O         9.120707       11.824178       16.766581
 O         9.105309       11.803841       12.335969
 O        10.370240       12.683564       10.077986
 O        10.388668        8.154602       10.051659
 O        14.251538        8.139390       12.315782
 O        14.251068        8.183802       16.790817
 O        14.248695       12.702500       16.785309
 O         9.099800        9.086109       16.785234
 O         1.298987        9.070946       12.312648
 O         5.229635       11.784975       10.078197
 O         6.516486       12.710630       12.330144
 O         5.186542       11.765759       14.515037
 O         2.619889        8.131360       14.513656
 O         2.618124       12.735568       14.479459
 O         5.223019        9.066928       10.104906
 O         5.201614        9.030241       14.530116
 O         1.326250       11.807048       16.695732
 O         1.306697       11.808768       12.262895
 O         2.675881       12.691801       10.056431
 O         2.633464        8.157500       10.100108
 O         6.525406        8.126801       12.315108
 O         6.530731        8.147182       16.754061
 O         6.527431       12.688808       16.724506
 O         1.310164        9.058276       16.731764
 H         9.115402        2.714295       12.338328
 H         9.570307        1.468213       13.129357
 H        12.937426        3.516626       10.042051
 H        12.050255        4.781290       10.053974
 H        15.164367        5.080066       12.261116
 H        13.826075        5.063287       11.487002
 H        12.067519        4.860983       14.522950
 H        13.403986        4.852475       13.740208
 H        11.308712        1.232274       14.600578
 H         9.964556        1.202331       15.369247
 H         9.924264        5.108498       15.336233
 H        10.363630        6.382304       14.576389
 H        13.380781        1.424187       10.868754
 H        12.043110        1.396041       10.094106
 H        12.997769        2.768319       14.595747
 H        13.447295        1.500489       15.368356
 H         8.157784        4.792122       16.764639
 H         9.055685        3.533850       16.781656
 H         8.187827        4.815337       12.336763
 H         9.530149        4.836078       13.103753
 H         9.916291        5.076774       10.844722
 H         9.913594        5.079880        9.297018
 H        10.347249       14.470929       10.098279
 H         9.918309        1.129425       10.887498
 H        13.821040        1.214990       13.126848
 H        15.151750        1.210104       12.340281
 H        15.201151        1.134504       16.794910
 H        14.282284       14.493937       16.790436
 H        13.794769        5.153812       15.995333
 H        14.239994        6.410330       16.776123
 H         8.179257        1.415590       16.811825
 H         9.504388        1.429790       17.609447
 H         9.552522        8.769099        4.136538
 H         9.089190       10.034157        3.375878
 H        13.410049       12.112391        0.311042
 H        12.972451       10.857923        1.095283
 H        13.715591       12.496873        2.566218
 H        14.092668       13.802139        3.328990
 H        11.993863       12.132532        5.641515
 H        13.298265       12.182012        4.831990
 H        10.399729        7.179523        5.572316
 H        11.304830        8.432461        5.588770
 H        10.331846       13.686072        5.634859
 H         9.868715       12.428405        6.408063
 H        13.393107        8.747808        0.304469
 H        12.047416        8.733858        1.068042
 H        12.962743       10.025645        5.627446
 H        13.441566        8.774297        6.393451
 H         8.155187       12.133570        7.866197
 H         9.493643       12.120868        8.648130
 H         9.462932       12.153434        4.168326
 H         8.120679       12.115668        3.408605
 H        11.259869       12.369316        1.143646
 H         9.912405       12.384538        1.906751
 H        10.338484        7.192541        1.106515
 H         9.914333        8.459608        1.882994
 H        13.779967        8.487120        4.110832
 H        13.761217        8.488052        2.560477
 H        13.842825        8.515707        8.649296
 H        15.190444        8.496353        7.888396
 H        13.854892       12.379501        7.032948
 H        14.338019       13.628213        7.796881
 H         9.545635        8.759278        7.018793
 H         9.095816       10.021549        7.795631
 H         0.372959        8.655307        3.291191
 H         1.335238        9.846285        3.207636
 H         5.281681       10.819876        1.019097
 H         5.748358       12.076514        0.240521
 H         5.985554       12.389285        2.573798
 H         6.393230       13.638620        3.387311
 H         5.431499       12.092013        4.744222
 H         5.058279       10.797660        5.546848
 H         2.180206        8.362074        4.812529
 H         2.630181        7.116270        5.593313
 H         2.122747       12.169790        6.552135
 H         3.587624       12.169929        5.611576
 H         5.656818        8.721554        1.854922
 H         4.335430        8.704151        1.051389
 H         5.636361        8.777212        6.405387
 H         4.306545        8.714239        5.616572
 H         0.463163       12.054640        7.733283
 H         1.355286       10.758163        7.775037
 H         2.070553       12.327016        4.925852
 H         0.149456       12.335115        3.588245
 H         2.329189       12.256828        1.744148
 H         3.650217       12.348281        0.994255
 H         2.170960        8.432034        0.226561
 H         2.164713        8.364422        1.765548
 H         6.077140        8.500379        4.118560
 H         7.417225        8.501467        3.351631
 H         6.076801        8.499054        8.646297
 H         7.405415        8.500544        7.848829
 H         6.464833       13.706291        7.782135
 H         5.980021       12.448409        7.034730
 H         1.830266        8.700978        7.079998
 H         1.849947        8.737805        8.631708
 H         1.788555        1.453424        2.533831
 H         1.759021        1.512811        4.076563
 H         5.219401        3.523326        1.071595
 H         4.289805        4.757143        1.062880
 H         6.043928        5.129441        2.496433
 H         6.501833        6.392993        3.268355
 H         4.329798        4.875882        5.535692
 H         5.664686        4.900503        4.747832
 H         2.129185        1.306661        6.440770
 H         2.630105       14.680148        5.686471
 H         2.139109        5.053884        4.803095
 H         2.149791        5.043994        6.351752
 H         5.706464        1.408846        1.870654
 H         5.706203        1.401933        0.320127
 H         5.256422        2.829382        5.578375
 H         4.326324        1.605314        5.608106
 H         1.278678        3.558377        7.858562
 H         0.410511        4.833842        7.836847
 H         0.383050        4.827745        3.324511
 H         1.274676        3.568044        3.303396
 H         2.153125        5.092454        1.862916
 H         2.626092        6.312503        1.039703
 H         2.685228       14.507855        1.067510
 H         3.570297        1.162845        1.091593
 H         7.411892        1.124644        3.383882
 H         6.068722        1.192291        4.139733
 H         7.428819        1.182223        7.798631
 H         6.092037        1.226097        7.022696
 H         6.497889        6.400209        7.819984
 H         6.062459        5.159283        7.013032
 H         1.735597        1.443287        8.668621
 H         0.389007        1.427378        7.896842
 H         9.558365        1.411221        4.135459
 H         9.552146        1.405488        2.587590
 H        12.035713        4.857334        1.056338
 H        13.379035        4.876220        0.287960
 H        13.776078        5.110822        2.536333
 H        14.221150        6.369479        3.309583
 H        13.439046        4.832465        4.812018
 H        13.447039        4.852045        6.359495
 H        11.290110        1.181692        5.637402
 H         9.949416        1.196282        6.404178
 H        11.282989        5.069750        5.557675
 H         9.945648        5.059611        4.779175
 H        12.943244        2.765491        1.025291
 H        13.415949        1.493185        0.277295
 H        12.981561        2.734526        5.610810
 H        13.404397        1.491852        4.808419
 H         9.524227        4.829723        7.033789
 H         8.184714        4.849844        7.805989
 H         8.167439        4.781329        3.320286
 H         9.048421        3.508904        3.340863
 H         9.877469        5.081654        0.308151
 H         9.889417        5.063585        1.853836
 H        10.395959       14.487694        1.111749
 H        11.276757        1.158688        1.089573
 H        15.108661        1.242795        3.279770
 H        13.765688        1.278935        2.513057
 H        13.779161        1.124039        8.617078
 H        13.807807        1.149520        7.071902
 H        13.806931        5.120256        8.613838
 H        14.259652        6.396403        7.865591
 H         9.105407        2.741309        7.869315
 H         9.543892        1.473034        8.645503
 H         1.787068        1.448755       13.082970
 H         1.782323        1.430451       11.539790
 H         5.673964        4.796838        9.259620
 H         5.229663        3.527435       10.024977
 H         6.035933        5.066695       11.526772
 H         6.014228        5.074853       13.074425
 H         5.626963        4.840831       15.325118
 H         4.278982        4.824334       14.566037
 H         2.196030        1.183715       15.327180
 H         3.533634        1.193640       14.549578
 H         2.110522        5.068319       15.324133
 H         2.123478        5.068802       13.777029
 H         5.697524        1.419762       10.829919
 H         5.688046        1.414737        9.283557
 H         5.222755        2.733990       14.516819
 H         5.678181        1.476559       13.739794
 H         0.380722        4.828965       16.817924
 H         1.727889        4.797678       17.577213
 H         1.321859        3.541530       12.274928
 H         1.781353        4.805914       11.513757
 H         3.538468        5.086872       10.043765
 H         2.194325        5.103076        9.280111
 H         2.669571       14.492157       10.081696
 H         3.545750        1.158472       10.076140
 H         6.539627       14.489518       12.310887
 H         7.442330        1.143304       12.308085
 H         6.490379       14.467140       16.733799
 H         6.047326        1.145251       15.990173
 H         6.037014        5.112538       17.555918
 H         6.500606        6.371762       16.782459
 H         1.802936        1.464403       17.566851
 H         1.320484        2.712836       16.794149
 H         9.114332       10.027149       12.294264
 H         9.559403        8.771680       11.505623
 H        13.451684       12.158364       10.834047
 H        13.472933       12.115366        9.291823
 H        14.279584       13.706598       12.305533
 H        15.181671       12.448015       12.274561
 H        12.976616       10.844306       14.501167
 H        13.436600       12.103959       13.728046
 H         9.907948        8.494474       15.325891
 H         9.903129        8.479054       13.777486
 H        11.323236       12.444916       14.533830
 H        10.440289       13.717395       14.552026
 H        12.942701       10.038345       10.088222
 H        12.051049        8.773043       10.065945
 H        12.053047        8.738586       14.526871
 H        13.390605        8.716868       13.752039
 H         9.561954       12.154669       17.555811
 H         9.606153       12.166136       16.007988
 H         8.199077       12.129512       12.355433
 H         9.543976       12.149748       13.121114
 H         9.953131       12.355298       10.882250
 H        11.280658       12.371713       10.084495
 H         9.928108        8.445082        9.257253
 H        10.377324        7.191652       10.043244
 H        14.247796        7.176444       12.277907
 H        13.798314        8.449579       11.524738
 H        13.814419        8.512811       15.998105
 H        15.159086        8.504769       16.758410
 H        15.154661       12.379060       16.751543
 H        13.816085       12.379474       15.987766
 H         9.550762        8.781724       17.580315
 H         9.124331       10.048912       16.800348
 H         1.744099        8.735982       13.099306
 H         0.396217        8.735915       12.337556
 H         5.676407       12.091066        9.283368
 H         5.251007       10.820466       10.066143
 H         6.034411       12.370519       13.092853
 H         6.059589       12.381017       11.550432
 H         4.276464       12.080571       14.511037
 H         5.154930       10.802777       14.521944
 H         3.539371        8.419253       14.519278
 H         2.629231        7.168073       14.528686
 H         2.151545       12.443442       13.689678
 H         2.611676       13.699183       14.473134
 H         4.317945        8.738240       10.125973
 H         5.661915        8.725678       10.892576
 H         5.682029        8.704151       13.761482
 H         5.678265        8.714979       15.306106
 H         1.828579       12.114315       17.453989
 H         1.780480       12.147246       15.916270
 H         1.310653       10.845106       12.270482
 H         1.788765       12.083844       11.477614
 H         3.582572       12.358227       10.056098
 H         2.263332       12.362133        9.259803
 H         2.155179        8.453279       10.882815
 H         2.622520        7.193687       10.114491
 H         7.439111        8.431163       12.307281
 H         6.546898        7.163516       12.309209
 H         7.431438        8.488014       16.779793
 H         6.093083        8.470366       17.549320
 H         6.080696       12.344644       15.944080
 H         7.437447       12.373788       16.697479
 H         1.332375       10.020477       16.703266
 H         1.771502        8.748891       15.944605
