384
 generated by VMD
 O         9.082365        1.715860       12.327259
 O        12.964440        4.521988       10.010913
 O        14.172907        5.383769       12.319862
 O        12.867064        4.433666       14.448957
 O        10.500384        1.069135       14.512001
 O        10.384717        5.412273       14.577382
 O        12.820836        1.743051        9.833616
 O        12.790242        1.968924       14.504471
 O         9.108922        4.500191       16.815374
 O         9.093962        4.473408       12.311813
 O        10.357348        5.417275       10.058183
 O        10.195610        0.856859        9.966432
 O        14.555991        0.803825       12.922591
 O        14.285373        0.777547       16.943960
 O        14.276134        5.371976       16.782974
 O         9.145069        1.735901       16.742891
 O         9.108849        9.040626        3.335263
 O        12.958563       11.779084        1.119110
 O        14.265164       12.711617        3.338361
 O        12.962940       11.803767        5.561311
 O        10.399159        8.159108        5.584613
 O        10.368162       12.718319        5.573565
 O        12.942600        9.044072        1.103218
 O        12.987906        9.068122        5.592066
 O         9.034342       11.806051        7.794087
 O         9.102682       11.775931        3.329631
 O        10.378345       12.709721        1.080966
 O        10.365070        8.119635        1.075056
 O        14.272874        8.178682        3.340985
 O        14.280426        8.140990        7.822038
 O        14.286132       12.680520        7.788317
 O         9.086515        9.073841        7.799960
 O         1.335083        9.051720        3.334759
 O         5.227657       11.823512        1.096251
 O         6.534596       12.712056        3.324866
 O         5.230230       11.806338        5.543987
 O         2.627787        8.153904        5.575357
 O         2.639241       12.722075        5.538587
 O         5.213912        9.083123        1.075873
 O         5.211887        9.068430        5.557048
 O         1.352681       11.796153        7.779497
 O         1.318569       11.780957        3.330473
 O         2.636689       12.718324        1.121141
 O         2.633829        8.163506        1.088022
 O         6.504862        8.183133        3.310765
 O         6.497680        8.182557        7.801920
 O         6.455283       12.735626        7.814263
 O         1.342447        9.049706        7.816649
 O         1.330396        1.789393        3.361947
 O         5.204049        4.502391        1.064409
 O         6.497972        5.441508        3.297805
 O         5.230548        4.517035        5.556640
 O         2.599208        0.859866        5.598138
 O         2.643587        5.418161        5.603172
 O         5.220923        1.765337        1.066905
 O         5.178875        1.780804        5.514910
 O         1.334862        4.479313        7.822482
 O         1.334634        4.538188        3.361642
 O         2.615208        5.429575        1.100884
 O         2.638291        0.849997        1.147769
 O         6.501449        0.842411        3.298165
 O         6.432155        0.876120        7.781564
 O         6.478517        5.452312        7.809181
 O         1.325416        1.735584        7.867456
 O         9.082221        1.768440        3.325413
 O        12.987936        4.514453        1.128574
 O        14.280818        5.441572        3.336819
 O        12.951249        4.501393        5.548440
 O        10.385882        0.855443        5.550370
 O        10.361311        5.425973        5.569708
 O        12.947200        1.784438        1.183562
 O        12.980363        1.752234        5.569835
 O         9.059444        4.537779        7.802613
 O         9.077377        4.507173        3.350355
 O        10.380760        5.375119        1.112450
 O        10.360696        0.856603        1.091419
 O        14.289979        0.851224        3.361441
 O        14.269545        0.808336        7.772904
 O        14.282637        5.402237        7.777424
 O         8.989652        1.804349        7.712146
 O         1.461081        1.793518       12.447457
 O         5.220975        4.520806       10.053052
 O         6.513794        5.427040       12.287299
 O         5.219228        4.550671       14.532481
 O         2.726507        0.847344       14.664879
 O         2.622811        5.417648       14.576514
 O         5.213429        1.769118       10.069570
 O         5.267270        1.816832       14.554174
 O         1.316887        4.495697       16.793669
 O         1.313473        4.534706       12.324296
 O         2.619463        5.406135       10.056751
 O         2.616027        0.858391       10.154646
 O         6.497261        0.841198       12.314432
 O         6.553780        0.883791       16.769737
 O         6.513639        5.419419       16.789989
 O         1.372582        1.751693       16.873966
 O         9.060614        9.066961       12.308492
 O        12.927911       11.790710       10.002629
 O        14.259223       12.562997       12.319503
 O        12.980701       11.699748       14.587291
 O        10.358088        8.123406       14.525547
 O        10.417758       12.724255       14.578681
 O        12.943946        9.049849       10.033957
 O        12.960864        8.971011       14.513928
 O         9.077634       11.816638       16.783398
 O         9.103865       11.805893       12.305513
 O        10.327641       12.703239       10.035083
 O        10.344429        8.161692       10.059816
 O        14.273735        8.117880       12.253488
 O        14.221315        8.137629       16.800436
 O        14.268154       12.684000       16.842148
 O         9.077359        9.058510       16.781815
 O         1.342354        9.029523       12.312515
 O         5.205550       11.800925       10.066244
 O         6.515394       12.696121       12.309692
 O         5.220225       11.787363       14.543698
 O         2.598232        8.157559       14.603398
 O         2.649551       12.711276       14.575090
 O         5.218722        9.064390       10.058070
 O         5.184782        9.053540       14.555648
 O         1.332544       11.820754       16.824133
 O         1.376426       11.765297       12.304654
 O         2.620424       12.716691       10.044347
 O         2.635754        8.146530       10.060190
 O         6.475065        8.164423       12.316689
 O         6.487204        8.154400       16.781082
 O         6.498589       12.733065       16.777529
 O         1.278900        9.080929       16.833435
 H         9.482203        1.405734       11.505685
 H         8.171203        1.396559       12.321831
 H        12.942382        3.563535        9.956023
 H        13.431507        4.825891        9.223637
 H        14.201501        6.348155       12.284135
 H        13.758672        5.091372       11.499061
 H        11.974108        4.820873       14.485173
 H        13.314213        4.798353       13.663765
 H         9.971903        1.291400       13.725464
 H         9.993876        1.325177       15.301289
 H         9.928226        5.123821       15.376570
 H        10.356705        6.378311       14.569124
 H        13.137532        1.301113       10.609886
 H        13.342741        1.386110        9.096408
 H        12.818447        3.003769       14.444950
 H        11.822052        1.590515       14.465926
 H         9.123045        3.538661       16.817448
 H         9.562285        4.784634       17.618032
 H         9.539346        4.772356       13.109293
 H         9.100191        3.511320       12.331244
 H        11.265538        5.098607       10.054160
 H         9.945009        5.067515       10.854255
 H         9.735328        1.179739        9.182580
 H        11.092447        1.189957        9.887087
 H        13.383612        1.558562       13.852495
 H        15.451755        1.166668       12.768697
 H        13.800675        1.083112       16.187748
 H        14.270199       14.410805       16.900900
 H        13.842648        5.040810       15.998685
 H        15.185358        5.047111       16.757902
 H         8.232736        1.420037       16.761059
 H         9.564788        1.409577       17.548052
 H         9.584704        8.717484        4.108135
 H         9.563423        8.697364        2.559150
 H        12.046262       12.087535        1.099306
 H        12.925831       10.816058        1.123010
 H        13.802716       12.413923        2.547725
 H        14.269200       13.674449        3.317873
 H        13.392982       12.144056        4.769057
 H        12.057584       12.131369        5.552246
 H         9.956497        8.497165        6.371204
 H        11.304490        8.486475        5.612626
 H         9.888567       12.393378        6.343048
 H         9.910459       12.377655        4.797920
 H        13.368651        8.719910        0.302621
 H        12.040372        8.706613        1.086688
 H        13.440707        8.769571        4.796337
 H        12.988461       10.031042        5.561435
 H         9.472187       12.133034        8.587545
 H         8.131457       12.140927        7.819822
 H         9.125287       10.813052        3.308027
 H         9.555540       12.083264        2.537682
 H        10.366475       13.672278        1.072560
 H         9.915691       12.419179        0.287819
 H        10.350066        7.157230        1.057684
 H         9.905486        8.423674        0.285085
 H        15.179395        8.502757        3.311658
 H        13.830780        8.496526        2.546724
 H        13.821088        8.482731        7.047246
 H        13.794477        8.461407        8.589641
 H        13.843656       12.347891        6.999771
 H        15.191937       12.354230        7.762280
 H         9.529569        8.777718        8.602543
 H         9.081588       10.037352        7.820267
 H         1.798581        8.721015        4.112162
 H         1.812877        8.728130        2.563724
 H         5.683369       12.160260        0.317975
 H         5.708913       12.148639        1.865370
 H         6.094153       12.385297        4.117558
 H         7.433579       12.366174        3.345500
 H         5.233756       10.843442        5.571905
 H         5.658167       12.110687        6.351750
 H         2.170531        8.455395        6.368338
 H         2.621553        7.190982        5.606434
 H         2.196570       12.385262        4.752492
 H         3.545115       12.396729        5.512806
 H         5.231050       10.046236        1.093226
 H         5.674040        8.787970        1.869498
 H         5.644090        8.743905        6.354675
 H         4.306557        8.739881        5.579460
 H         1.366936       10.833500        7.769315
 H         1.811714       12.092717        6.986806
 H         0.404972       12.084907        3.334199
 H         1.295075       10.817749        3.338090
 H         2.193311       12.365776        1.900407
 H         3.543364       12.393373        1.140747
 H         2.177447        8.502486        0.310557
 H         3.535481        8.501279        1.055893
 H         6.069201        8.503918        4.107887
 H         7.415079        8.496506        3.342490
 H         6.072207        8.506468        8.603381
 H         7.405705        8.504432        7.817690
 H         6.432454       13.698546        7.821952
 H         6.007300       12.435959        8.612493
 H         1.777424        8.726892        8.613170
 H         0.435645        8.726480        7.844216
 H         1.346927        2.752170        3.378160
 H         1.773744        1.490047        4.163558
 H         5.184473        3.538995        1.075528
 H         4.288676        4.800640        1.075093
 H         6.042849        5.137647        2.505827
 H         6.486951        6.404315        3.277229
 H         5.672520        4.822943        4.757952
 H         5.231866        3.554190        5.523072
 H         2.160063        1.140555        6.407859
 H         2.597521       14.498737        5.599000
 H         3.549636        5.091311        5.613971
 H         2.208587        5.070809        6.389345
 H         4.319107        1.429730        1.104310
 H         5.665427        1.433507        1.855173
 H         5.612981        1.431605        4.729657
 H         4.273392        1.453246        5.509673
 H         0.421315        4.784166        7.802374
 H         1.305520        3.516862        7.837345
 H         1.802647        4.864538        2.586095
 H         1.811429        4.861120        4.134000
 H         2.614731        6.392889        1.072919
 H         2.152006        5.130074        0.312775
 H         2.622459       14.488545        1.167797
 H         2.184321        1.157905        1.939996
 H         7.412751        1.153343        3.319107
 H         6.538357       14.481646        3.307624
 H         5.992651        1.193267        6.985575
 H         7.335490        1.209504        7.739277
 H         6.469456        6.415372        7.781327
 H         6.040082        5.142556        7.009551
 H         0.423487        1.398789        7.868199
 H         1.743771        1.424595        8.676153
 H         9.544480        1.463648        4.114218
 H         9.084601        2.731301        3.357404
 H        13.465270        4.858409        1.893268
 H        13.448337        4.833297        0.347364
 H        14.303239        6.404857        3.342488
 H        15.196776        5.142817        3.354405
 H        13.388832        4.842005        4.761498
 H        12.046215        4.829636        5.532499
 H        11.304736        1.142944        5.561196
 H        10.394791       14.494229        5.565579
 H        10.366845        6.389219        5.596453
 H         9.908198        5.132363        6.368017
 H        12.977711        2.747252        1.144254
 H        13.428477        1.455956        0.419726
 H        13.446130        1.458769        4.778529
 H        12.980812        2.714949        5.550586
 H         8.157327        4.875190        7.827402
 H         9.495234        4.843765        8.604880
 H         8.176170        4.846946        3.350228
 H         9.503860        4.848408        4.145050
 H        11.290818        5.063179        1.145938
 H         9.942806        5.058214        1.910807
 H        11.262337        1.190437        1.137104
 H         9.911593        1.185927        1.878901
 H        13.837354        1.200866        2.586409
 H        15.190648        1.192446        3.339230
 H        14.261959       14.446355        7.748559
 H        13.827609        1.117109        6.972787
 H        14.273438        6.365838        7.768750
 H        13.810694        5.113000        6.989443
 H         9.030028        2.766778        7.716164
 H         9.485649        1.499110        6.945291
 H         1.980432        1.479960       13.197494
 H         1.873536        1.442467       11.647917
 H         4.312768        4.840251       10.039915
 H         5.644420        4.862087        9.257546
 H         7.412005        5.082279       12.269996
 H         6.074287        5.101580       11.493559
 H         5.690065        4.875030       13.756950
 H         5.691352        4.874912       15.306771
 H         2.693448       14.485950       14.651675
 H         2.246442        1.133953       15.448973
 H         3.534881        5.109531       14.535160
 H         2.184906        5.111616       13.776068
 H         5.226082        2.731650       10.046101
 H         5.643883        1.471893        9.260319
 H         5.229134        2.779630       14.542066
 H         4.359200        1.498514       14.600825
 H         1.353678        3.533513       16.803421
 H         1.789585        4.786016       16.005377
 H         1.331845        3.573482       12.359684
 H         0.389425        4.796898       12.323676
 H         2.145508        5.087076       10.830445
 H         2.147575        5.070974        9.286368
 H         3.529788        1.160545       10.115752
 H         2.641196       14.497876       10.119428
 H         6.039127        1.193781       13.085062
 H         6.037440        1.177593       11.537540
 H         6.075083        1.203174       17.542276
 H         6.095086        1.235250       15.997902
 H         6.063583        5.077858       17.570841
 H         7.416558        5.088723       16.823727
 H         1.812728        1.431605       17.671743
 H         0.477978        1.406736       16.903706
 H         9.054106       10.030151       12.306102
 H         8.140962        8.780373       12.313062
 H        13.426071       12.113175        9.243395
 H        13.394321       12.087647       10.787831
 H        14.262465       13.508004       12.410680
 H        13.803431       12.237215       13.105651
 H        13.421428       12.042486       15.371175
 H        12.089023       12.061954       14.595542
 H        11.269122        8.436337       14.496619
 H         9.920782        8.464373       13.736928
 H        10.445838       13.677849       14.588281
 H         9.931921       12.444399       15.364429
 H        12.028866        8.749850       10.048444
 H        12.916844       10.012664       10.018453
 H        13.428257        8.695284       13.718323
 H        12.976256        9.934397       14.523724
 H         9.060754       10.853822       16.779928
 H         8.160063       12.111240       16.778978
 H         9.563793       12.132563       11.523466
 H         9.582791       12.137320       13.069341
 H        11.250313       12.428410       10.018000
 H        10.320398       13.665739       10.017792
 H        10.335307        7.198890       10.077951
 H         9.888798        8.457642       10.854956
 H        13.836398        8.463346       11.467547
 H        15.179034        8.446171       12.242759
 H        14.239038        7.176798       16.787876
 H        13.779005        8.411112       15.989073
 H        13.832199       12.337470       17.629436
 H        15.179407       12.369823       16.858356
 H         8.171218        8.732219       16.759811
 H         9.508330        8.734345       15.984671
 H         1.780739        8.737397       13.118096
 H         1.372116        9.992502       12.320360
 H         5.220966       10.837626       10.079325
 H         5.666177       12.095071       10.858948
 H         6.522084       13.658816       12.313931
 H         7.436200       12.413227       12.307967
 H         5.223155       10.823909       14.531096
 H         5.681858       12.079426       13.750084
 H         2.128108        8.457568       15.387839
 H         2.592351        7.195039       14.623024
 H         2.211760       12.390901       13.780247
 H         3.550681       12.369784       14.546420
 H         4.314162        8.733154       10.072419
 H         5.643675        8.733429       10.856799
 H         4.276087        8.735665       14.591215
 H         5.624128        8.724747       15.347626
 H         1.810764       12.149186       17.593206
 H         1.800503       12.140978       16.045824
 H         0.458609       12.049425       12.287020
 H         1.788175       12.105444       11.502740
 H         2.194852       12.395619        9.242472
 H         3.522846       12.379855       10.033102
 H         2.621585        7.183583       10.070449
 H         2.182733        8.437034       10.859147
 H         6.483232        7.201456       12.325831
 H         6.010300        8.448238       13.111467
 H         6.041387        8.461409       17.578135
 H         6.482260        7.191642       16.811169
 H         6.497084       13.695031       16.745293
 H         6.040498       12.424818       15.987939
 H         0.362786        8.787108       16.826500
 H         1.268195       10.044025       16.826456
