384
 generated by VMD
 O         9.094535        1.763547       12.324529
 O        12.965478        4.496994       10.028789
 O        14.282709        5.399811       12.253901
 O        12.952652        4.505405       14.479132
 O        10.396749        0.850240       14.548588
 O        10.366669        5.416425       14.568942
 O        12.961953        1.760367       10.060363
 O        12.981190        1.769013       14.508689
 O         9.049930        4.501235       16.796324
 O         9.101769        4.501932       12.314953
 O        10.377472        5.411985       10.077921
 O        10.372789        0.858437       10.081883
 O        14.268693        0.848369       12.284772
 O        14.293288        0.913928       16.754471
 O        14.264844        5.369339       16.723352
 O         9.086937        1.764808       16.774508
 O         9.016240        9.103221        3.376983
 O        13.065033       11.993484        1.080805
 O        14.294810       12.773482        3.368529
 O        12.982904       11.780336        5.621154
 O        10.417906        8.159601        5.579857
 O        10.405463       12.712234        5.595722
 O        12.880013        8.433090        1.269076
 O        13.169418        9.127139        5.505879
 O         9.095163       11.824386        7.839651
 O         9.066183       11.837610        3.362540
 O        10.344967       12.719496        1.084140
 O        10.245610        8.093139        1.146098
 O        14.311457        8.352323        3.489248
 O        14.272520        8.168083        7.733188
 O        14.274348       12.717510        7.826833
 O         9.077076        9.094411        7.811965
 O         1.130408        9.115911        3.277161
 O         5.229309       11.794875        1.115446
 O         6.475413       12.732765        3.372223
 O         5.191243       11.817148        5.616366
 O         2.572690        8.143723        5.548135
 O         2.601817       12.721180        5.604095
 O         5.142830        9.048581        1.130283
 O         5.178722        9.081583        5.597506
 O         1.324011       11.791696        7.840665
 O         1.334635       11.797170        3.314617
 O         2.636230       12.706056        1.086475
 O         2.493004        8.169141        1.157545
 O         6.454151        8.143023        3.360717
 O         6.503909        8.151847        7.820674
 O         6.494472       12.699337        7.856071
 O         1.301951        9.060439        7.805063
 O         1.353954        1.667112        3.328781
 O         5.204808        4.537611        1.078023
 O         6.473776        5.401352        3.343065
 O         5.206436        4.497139        5.592564
 O         2.608243        0.848389        5.610343
 O         2.631077        5.414645        5.563265
 O         5.223032        1.791828        1.080897
 O         5.183681        1.753644        5.584212
 O         1.324357        4.540802        7.822348
 O         1.369043        4.388439        3.348403
 O         2.598603        5.424222        1.108724
 O         2.650091        0.841649        1.071724
 O         6.467234        0.871170        3.340655
 O         6.488909        0.834103        7.821360
 O         6.515425        5.406528        7.818634
 O         1.310461        1.787059        7.830527
 O         9.069828        1.737158        3.359300
 O        12.929761        4.468652        1.041521
 O        14.258977        5.231739        3.393523
 O        12.945918        4.499234        5.630551
 O        10.393746        0.843239        5.596516
 O        10.370066        5.436741        5.603956
 O        12.948065        1.720832        1.078016
 O        12.975866        1.757282        5.600317
 O         9.102854        4.496664        7.834365
 O         9.050347        4.467784        3.407021
 O        10.311378        5.336109        1.139699
 O        10.339119        0.857217        1.097992
 O        14.258278        0.882125        3.338641
 O        14.272900        0.851816        7.835671
 O        14.271511        5.446326        7.829992
 O         9.089249        1.756270        7.840822
 O         1.318316        1.749187       12.292933
 O         5.226322        4.484161       10.061315
 O         6.509995        5.410057       12.292388
 O         5.201968        4.534713       14.530475
 O         2.633161        0.899783       14.545247
 O         2.619976        5.425037       14.514215
 O         5.213587        1.745007       10.062008
 O         5.226193        1.795407       14.556792
 O         1.345461        4.529376       16.776960
 O         1.333442        4.485610       12.272628
 O         2.643423        5.414613       10.062917
 O         2.617012        0.850145       10.058133
 O         6.507139        0.861691       12.314258
 O         6.507015        0.859924       16.785154
 O         6.472995        5.458328       16.780632
 O         1.356881        1.795364       16.797384
 O         9.055669        9.062770       12.308952
 O        12.954816       11.789547       10.051435
 O        14.258827       12.715562       12.282741
 O        12.962123       11.798072       14.503068
 O        10.362730        8.162329       14.545897
 O        10.379052       12.710266       14.547235
 O        12.959982        9.046715       10.011915
 O        12.978528        9.052176       14.459840
 O         9.097178       11.790878       16.791067
 O         9.079038       11.804521       12.310752
 O        10.380679       12.724367       10.085525
 O        10.349972        8.157556       10.055237
 O        14.287011        8.139710       12.223952
 O        14.333903        8.134732       16.696020
 O        14.330136       12.779678       16.677864
 O         9.064146        9.040765       16.810230
 O         1.334198        9.074455       12.267269
 O         5.206565       11.780010       10.094835
 O         6.500401       12.722970       12.314007
 O         5.217050       11.842334       14.568084
 O         2.625672        8.161918       14.510269
 O         2.636036       12.764127       14.514983
 O         5.200513        9.040096       10.069871
 O         5.191232        9.102169       14.547266
 O         1.363438       11.824710       16.747837
 O         1.321924       11.820644       12.298305
 O         2.625367       12.708160       10.065973
 O         2.621349        8.142408       10.033189
 O         6.479863        8.151548       12.319798
 O         6.452334        8.200828       16.798262
 O         6.508409       12.717712       16.820721
 O         1.358403        9.072450       16.763680
 H         9.530575        1.428073       13.115597
 H         8.187295        1.440305       12.344908
 H        12.938560        3.533731       10.033147
 H        12.051862        4.801995       10.045786
 H        13.809485        5.073075       11.481290
 H        13.799370        5.083717       13.025056
 H        13.399277        4.821801       15.271420
 H        12.048536        4.834257       14.526573
 H        10.416503       14.489252       14.550232
 H        11.312738        1.148128       14.535586
 H         9.907137        5.124323       15.363244
 H        10.353672        6.379268       14.577389
 H        12.057796        1.428530       10.084329
 H        13.398408        1.432704       10.854814
 H        13.443654        1.499042       15.309603
 H        12.976583        2.732499       14.505348
 H         9.472152        4.794260       17.610449
 H         8.150678        4.845506       16.810486
 H         9.112623        3.538857       12.336959
 H         9.544958        4.802447       13.115633
 H         9.927252        5.115167       10.876803
 H        10.354795        6.374479       10.086473
 H        10.365681       14.497446       10.106516
 H         9.921432        1.158503       10.878801
 H        14.247973       14.487367       12.301071
 H        13.812077        1.151061       13.077911
 H        14.308368       14.553172       16.731468
 H        13.818207        1.163829       17.553661
 H        13.803069        5.087718       17.518940
 H        14.282290        6.330482       16.736263
 H         9.559122        1.471760       15.987885
 H         9.078884        2.727827       16.754770
 H         9.043770       10.067220        3.389179
 H         9.502782        8.800635        4.148322
 H        13.223159       11.060053        1.042675
 H        13.495971       12.284506        1.898534
 H        13.828262       12.458921        4.147974
 H        14.274365       13.738928        3.398278
 H        13.417028       12.135474        6.407316
 H        12.074467       12.106215        5.627971
 H        11.330725        8.435565        5.548389
 H        10.418445        7.193459        5.583468
 H        10.397017       13.676113        5.576897
 H         9.938452       12.420675        4.805137
 H        11.913977        8.276892        1.242950
 H        13.772033        8.464174        2.688771
 H        13.096935       10.097000        5.579518
 H        13.573631        8.788198        6.325936
 H         9.565160       12.151572        8.614631
 H         9.561068       12.159830        7.066348
 H         8.163352       12.174581        3.348915
 H         9.494933       12.150921        2.559726
 H        11.259614       12.432949        1.065274
 H         9.929336       12.372663        0.285401
 H         9.786409        8.472385        1.904209
 H         9.829087        8.444489        0.349494
 H        13.833834        8.716915        4.349279
 H        15.271185        8.701065        3.364385
 H        15.191452        8.461613        7.778822
 H        14.285736        7.203166        7.768740
 H        15.189294       12.415812        7.835318
 H        14.300591       13.681186        7.833866
 H         9.550954        8.799066        7.029975
 H         9.094744       10.058445        7.802643
 H         1.223577       10.084456        3.266304
 H         1.596538        8.775461        2.493498
 H         5.668613       12.093461        1.918840
 H         5.214217       10.832786        1.143883
 H         6.449311       13.695569        3.378755
 H         6.022243       12.435865        4.168289
 H         4.289644       12.154528        5.636723
 H         5.628210       12.130105        6.415932
 H         2.105159        8.434466        4.766274
 H         2.582975        7.178481        5.524899
 H         2.589496       13.685332        5.584835
 H         2.165174       12.422565        4.800973
 H         5.586453        8.710560        1.915901
 H         4.235982        8.733162        1.165617
 H         5.156254       10.045185        5.604108
 H         4.265862        8.782132        5.585632
 H         1.796800       12.119239        8.614364
 H         1.787213       12.130486        7.066781
 H         1.777287       12.129251        2.523069
 H         0.441570       12.158654        3.304579
 H         2.665638       13.669121        1.078164
 H         3.550559       12.403398        1.097168
 H         2.504990        7.204977        1.131440
 H         2.093155        8.462123        0.330318
 H         7.352566        8.489097        3.379912
 H         6.017253        8.479020        4.150496
 H         6.058556        8.484889        7.034973
 H         7.402144        8.498234        7.797057
 H         7.403771       12.382530        7.868433
 H         6.068273       12.364190        8.652205
 H         1.759709        8.768205        7.010784
 H         1.327609       10.024667        7.805492
 H         0.438058        1.371366        3.302007
 H         1.782358        1.349876        2.525671
 H         5.632602        4.878163        0.284461
 H         4.298341        4.861726        1.065114
 H         6.024961        5.112639        2.540709
 H         6.464072        6.364308        3.331649
 H         5.685770        4.825653        6.360960
 H         5.668665        4.826320        4.813748
 H         3.514202        1.176631        5.583576
 H         2.181537        1.148674        4.800233
 H         3.538879        5.089299        5.562792
 H         2.204192        5.036164        4.787054
 H         5.680297        1.489406        0.288820
 H         5.226804        2.754579        1.056085
 H         5.639556        1.465649        4.785427
 H         5.202299        2.716598        5.578362
 H         1.808942        4.855171        8.593313
 H         1.794753        4.861959        7.046154
 H         1.372897        3.423595        3.339322
 H         0.444773        4.647997        3.360774
 H         2.139208        5.098860        0.326994
 H         2.151130        5.044442        1.871552
 H         2.211159        1.185958        0.285988
 H         3.548422        1.189070        1.061127
 H         6.050213        1.204432        2.538619
 H         7.380037        1.178151        3.328747
 H         6.033226        1.130842        7.026770
 H         6.478889       14.473186        7.808420
 H         6.535816        6.369325        7.820826
 H         7.431432        5.108836        7.825386
 H         1.768912        1.478987        7.040819
 H         1.330647        2.748938        7.804086
 H         9.550204        1.407646        4.125775
 H         9.533458        1.418410        2.577007
 H        12.021956        4.787044        1.091350
 H        13.361721        4.745919        1.852186
 H        13.785632        4.955292        4.192211
 H        14.304216        6.178505        3.442979
 H        13.389011        4.844270        6.413847
 H        12.041658        4.832784        5.642004
 H         9.954618        1.174017        6.387104
 H        11.296244        1.179182        5.617546
 H         9.908601        5.100613        6.381166
 H         9.899935        5.091230        4.836357
 H        12.920454        2.682695        1.053140
 H        12.031727        1.423446        1.077316
 H        13.438796        1.450541        6.387904
 H        12.975268        2.718848        5.639751
 H         9.552513        4.793728        8.633007
 H         9.109263        3.533358        7.853117
 H         9.031227        3.504153        3.400458
 H         8.135509        4.768709        3.386297
 H         9.869271        5.024402        1.937901
 H        10.252438        6.294831        1.159438
 H        10.319698       14.496921        1.069945
 H         9.895308        1.164375        0.300044
 H        13.795686        1.218354        4.113867
 H        13.775781        1.191288        2.563783
 H        13.830567        1.177208        8.627433
 H        15.172311        1.196930        7.854816
 H        13.833179        5.105055        8.618382
 H        15.176111        5.114002        7.845598
 H         8.185438        1.425478        7.850979
 H         9.516071        1.423010        8.637985
 H         1.756911        1.439503       13.092700
 H         0.416244        1.411274       12.317444
 H         5.230581        3.521070       10.035561
 H         5.677763        4.786794        9.266358
 H         7.416231        5.084568       12.279615
 H         6.081300        5.071665       11.498675
 H         5.670718        4.823437       13.739820
 H         5.226953        3.571601       14.528897
 H         3.537175        1.231481       14.564410
 H         2.200896        1.224332       15.342731
 H         2.187812        5.078311       13.726954
 H         3.527447        5.100593       14.498418
 H         5.644253        1.409352        9.268088
 H         4.305701        1.424234       10.041695
 H         5.693261        1.454974       15.327788
 H         5.686484        1.455538       13.782224
 H         0.433417        4.834699       16.741627
 H         1.778192        4.853284       15.979608
 H         1.303078        3.522543       12.281279
 H         0.419082        4.788581       12.270149
 H         3.546415        5.080392       10.085271
 H         2.199632        5.074623       10.848229
 H         2.145174        1.189877        9.290789
 H         2.150197        1.175121       10.835962
 H         6.050424        1.160758       11.520688
 H         6.491092       14.500913       12.292004
 H         7.425546        1.151172       16.782164
 H         6.521398       14.499173       16.804569
 H         6.454630        6.421052       16.762548
 H         6.023394        5.156429       15.984031
 H         0.438697        1.504420       16.788092
 H         1.338313        2.758646       16.791588
 H         9.485949        8.735633       11.512688
 H         8.152350        8.727010       12.295758
 H        12.968242       10.827430       10.017228
 H        13.418456       12.101207        9.267382
 H        13.784786       12.380895       13.052096
 H        13.794537       12.382765       11.507840
 H        12.988162       10.835554       14.520427
 H        13.442748       12.106534       15.278282
 H        11.268630        8.484444       14.507500
 H         9.919425        8.490308       13.756160
 H         9.938851       12.387130       13.753743
 H        11.281869       12.375898       14.518826
 H        13.443667        8.715239       10.777418
 H        13.424459        8.726227        9.234371
 H        13.460930        8.721878       15.222133
 H        13.442209        8.724656       13.681480
 H         9.548070       12.089559       15.993470
 H         9.100600       10.828356       16.769958
 H         8.166569       12.114579       12.311186
 H         9.042317       10.842134       12.311803
 H         9.940392       12.386327       10.873192
 H        11.282739       12.387738       10.102043
 H        11.256275        8.479968       10.029902
 H         9.915943        8.495781        9.265128
 H        15.199593        8.447453       12.238282
 H        14.313735        7.176740       12.237087
 H        15.235755        8.479912       16.737078
 H        13.910026        8.394743       17.504251
 H        15.231431       12.437733       16.716549
 H        13.908588       12.518945       17.499636
 H         8.151109        8.735195       16.776730
 H         9.501228        8.714268       16.016691
 H         1.797759        8.784255       11.475072
 H         1.342679       10.037475       12.263279
 H         4.293445       12.086428       10.082843
 H         5.178276       10.817276       10.085144
 H         6.035462       12.406733       13.096305
 H         6.025045       12.379107       11.549884
 H         5.671885       12.130896       15.366746
 H         5.216461       10.879361       14.582013
 H         2.611864        7.198566       14.492210
 H         2.166133        8.461696       13.718899
 H         3.551211       12.463864       14.526666
 H         2.659388       13.727220       14.522175
 H         5.642441        8.721623        9.275869
 H         4.296073        8.709831       10.035093
 H         4.289526        8.763502       14.515221
 H         5.637430        8.761679       13.764590
 H         1.836958       12.170251       15.982807
 H         1.825789       12.143577       17.529684
 H         0.414292       12.142108       12.318051
 H         1.759729       12.161608       13.085734
 H         2.158545       12.419849       10.858454
 H         2.614689       13.671445       10.077456
 H         2.610038        7.178565       10.034104
 H         2.154169        8.430013        9.242919
 H         6.023428        8.447142       11.524473
 H         6.475749        7.188524       12.297041
 H         5.976645        8.511665       17.574772
 H         5.986355        8.540194       16.026102
 H         7.410569       12.381848       16.829376
 H         6.080257       12.383327       17.616323
 H         1.370108       10.035746       16.741705
 H         1.820765        8.771370       15.973389
