384
 generated by VMD
 O         9.166839        1.634864       12.311599
 O        12.797727        4.788622       10.118868
 O        14.210765        5.452591       12.295363
 O        13.087755        4.487763       14.612648
 O        10.439300        0.778182       14.611012
 O        10.534491        5.342854       14.656299
 O        12.903729        1.833475       10.063190
 O        13.015990        1.745577       14.592566
 O         9.084529        4.458762       16.851273
 O         8.864550        4.656497       11.848105
 O        10.514331        5.658038       10.072784
 O        10.372911        0.792660       10.006949
 O        14.278281        0.874489       12.296224
 O        14.298626        0.808382       16.811598
 O        14.301166        5.404603       16.877325
 O         9.082569        1.716213       16.815832
 O         9.092268        9.053715        3.355081
 O        12.974134       11.804614        1.126813
 O        14.281341       12.749642        3.352302
 O        12.985955       11.811932        5.564429
 O        10.432438        8.167519        5.595994
 O        10.384659       12.680674        5.546795
 O        12.962367        9.068757        1.097039
 O        13.029003        9.071882        5.550558
 O         9.078135       11.785841        7.807180
 O         9.045272       11.796293        3.341418
 O        10.401008       12.731407        1.135399
 O        10.378345        8.146697        1.109096
 O        14.295814        8.146817        3.304541
 O        14.282200        8.166051        7.789631
 O        14.243283       12.729302        7.822119
 O         9.135716        9.063503        7.835568
 O         1.343293        9.060388        3.347853
 O         5.210614       11.777659        1.102380
 O         6.463401       12.704129        3.359168
 O         5.159298       11.796029        5.594932
 O         2.595272        8.121196        5.592257
 O         2.576163       12.705167        5.590597
 O         5.220878        9.038059        1.100429
 O         5.181129        9.051157        5.558730
 O         1.287593       11.803895        7.837439
 O         1.317408       11.795319        3.329238
 O         2.633333       12.689631        1.097730
 O         2.632105        8.151452        1.108606
 O         6.508563        8.130156        3.338525
 O         6.507493        8.165362        7.795836
 O         6.479413       12.686479        7.827686
 O         1.322744        9.069530        7.828886
 O         1.359881        1.778167        3.329867
 O         5.186646        4.499481        1.091218
 O         6.465071        5.391079        3.339147
 O         5.134170        4.473588        5.553891
 O         2.588828        0.850433        5.604600
 O         2.549540        5.382607        5.576273
 O         5.223539        1.765085        1.109415
 O         5.171117        1.739437        5.584137
 O         1.205924        4.497686        7.791885
 O         1.329106        4.512218        3.295615
 O         2.613035        5.418414        1.060195
 O         2.649586        0.830117        1.103758
 O         6.499682        0.847876        3.363714
 O         6.463804        0.821541        7.813017
 O         6.417083        5.419600        7.793572
 O         1.282908        1.756302        7.839362
 O         9.067414        1.771833        3.347525
 O        12.950669        4.487674        1.133212
 O        14.270830        5.406350        3.327127
 O        12.954571        4.521775        5.588671
 O        10.395095        0.814253        5.548711
 O        10.367232        5.427555        5.503580
 O        12.981965        1.750413        1.082569
 O        12.977189        1.768508        5.553293
 O         9.023085        4.412409        7.686089
 O         9.046585        4.502409        3.319999
 O        10.374392        5.404933        1.120645
 O        10.386381        0.866487        1.119303
 O        14.299790        0.888213        3.325666
 O        14.219452        0.872339        7.827487
 O        14.178885        5.450337        7.921263
 O         9.050597        1.719043        7.754251
 O         1.332727        1.778316       12.329486
 O         5.059701        4.500489       10.019193
 O         6.346788        5.431087       12.229204
 O         5.188470        4.503870       14.531436
 O         2.625859        0.847890       14.573733
 O         2.600813        5.409947       14.557150
 O         5.179749        1.750891       10.068942
 O         5.211411        1.752634       14.547024
 O         1.326244        4.474284       16.783012
 O         1.292167        4.519962       12.294881
 O         2.501826        5.442032       10.017524
 O         2.591943        0.858138       10.075033
 O         6.503572        0.816951       12.302229
 O         6.485200        0.824681       16.800634
 O         6.489066        5.405788       16.795427
 O         1.338748        1.735389       16.814981
 O         9.121028        9.005787       12.268278
 O        12.998248       11.809746       10.076471
 O        14.281896       12.740909       12.320493
 O        13.027937       11.795106       14.569188
 O        10.418730        8.150448       14.547534
 O        10.429287       12.647077       14.586958
 O        13.037737        9.054685       10.040304
 O        13.000286        9.061685       14.563890
 O         9.119322       11.799257       16.826044
 O         9.119189       11.777947       12.331549
 O        10.386047       12.662442       10.055769
 O        10.340354        8.128494       10.041286
 O        14.327580        8.179945       12.324066
 O        14.267378        8.140731       16.828470
 O        14.301433       12.674471       16.824127
 O         9.094151        9.063543       16.798796
 O         1.370740        9.090018       12.331508
 O         5.179090       11.796258       10.074755
 O         6.507071       12.670616       12.312821
 O         5.216750       11.805266       14.575787
 O         2.634541        8.159717       14.578165
 O         2.622490       12.708635       14.577593
 O         5.205386        9.052752       10.062941
 O         5.220601        9.070479       14.548568
 O         1.339163       11.763744       16.813334
 O         1.326687       11.820829       12.326469
 O         2.592773       12.725422       10.062148
 O         2.602874        8.177308       10.068730
 O         6.514617        8.176919       12.315142
 O         6.515840        8.148310       16.795568
 O         6.521710       12.690866       16.818609
 O         1.330629        9.023930       16.817072
 H         9.229113        2.580910       12.316880
 H         9.600492        1.348839       11.496178
 H        13.312792        5.027905       10.910235
 H        13.323092        5.031530        9.335484
 H        14.247287        6.414952       12.354447
 H        13.806356        5.133367       13.110630
 H        13.540895        4.776907       15.413248
 H        13.082215        3.523043       14.620627
 H        11.336043        1.131256       14.594427
 H        10.019001        1.076607       13.800300
 H        11.457315        5.043667       14.667353
 H        10.157500        4.924775       13.894107
 H        12.005549        1.479952       10.059122
 H        12.816139        2.782590       10.101723
 H        13.489766        1.391243       15.353606
 H        13.470794        1.427513       13.806629
 H         9.589557        4.751314       16.088800
 H         9.089687        3.495045       16.823664
 H         9.936945        5.285573       10.763071
 H         7.938136        4.950027       11.970931
 H        10.444001        6.683924       10.064429
 H        11.500433        5.302019       10.129946
 H         9.901474        1.085591        9.220845
 H        10.373087       14.430293        9.993030
 H        15.182611        1.205925       12.272853
 H        13.826776        1.227778       11.525890
 H        15.213018        1.111780       16.821194
 H        14.325949       14.447467       16.821724
 H        13.818698        5.111207       17.657711
 H        14.278430        6.367943       16.878679
 H         9.534010        1.379289       16.034956
 H         8.177717        1.388270       16.781116
 H         9.560631        8.727310        2.579028
 H         9.580135        8.745797        4.125067
 H        13.413752       12.145582        1.912545
 H        12.073393       12.146481        1.145461
 H        14.318656       13.712088        3.342597
 H        15.191421       12.434197        3.339664
 H        12.073120       12.116934        5.532482
 H        13.425314       12.162579        4.781309
 H        11.351689        8.453903        5.575742
 H        10.434927        7.204872        5.568469
 H         9.916652       12.364905        6.325839
 H         9.897148       12.357533        4.780383
 H        12.941175       10.032060        1.115068
 H        12.047388        8.768124        1.103425
 H        13.474883        8.772777        4.750396
 H        13.025754       10.035389        5.527570
 H         9.516667       12.111011        8.600708
 H         8.172057       12.112309        7.833316
 H         9.031528       10.833626        3.335369
 H         8.127843       12.090581        3.346374
 H        10.380013       13.694512        1.153808
 H         9.919134       12.427395        1.911240
 H         9.921159        8.444620        0.315801
 H        10.367106        7.183415        1.089666
 H        14.274518        7.183847        3.289804
 H        13.826390        8.447975        2.518970
 H        13.863498        8.498063        6.986223
 H        15.189873        8.492339        7.786722
 H        14.219880       13.691822        7.807077
 H        13.793029       12.428707        7.025119
 H         9.125137       10.028866        7.809796
 H         9.601690        8.768984        7.043945
 H         0.440492        8.724693        3.344697
 H         1.762451        8.723374        4.147066
 H         5.680964       12.078027        0.317099
 H         5.224807       10.814716        1.081991
 H         6.001653       12.372133        2.581841
 H         5.985780       12.377231        4.129160
 H         5.136828       10.833559        5.579575
 H         4.243641       12.096101        5.594759
 H         2.151730        8.433528        6.387900
 H         2.566324        7.158571        5.612462
 H         2.101563       12.376210        6.361340
 H         2.113882       12.376750        4.812024
 H         5.695780        8.706147        1.870002
 H         5.686361        8.710310        0.323369
 H         5.619174        8.722260        4.766540
 H         4.283066        8.703799        5.548199
 H         0.385220       12.139798        7.858196
 H         1.730545       12.143638        8.622931
 H         1.331992       10.832292        3.316115
 H         1.787292       12.090893        2.541851
 H         3.549220       12.390559        1.098686
 H         2.656510       13.652624        1.100424
 H         3.539766        8.474523        1.121785
 H         2.204942        8.479285        1.907215
 H         7.425104        8.424956        3.353266
 H         6.523214        7.167073        3.343637
 H         6.065341        8.494430        7.005309
 H         7.409641        8.495322        7.771216
 H         6.010508       12.358006        8.602509
 H         6.000895       12.363229        7.056714
 H         1.322332       10.033309        7.844870
 H         1.775219        8.782153        8.629857
 H         1.369809        2.741318        3.340941
 H         1.792843        1.481312        4.136958
 H         5.628555        4.829074        0.301384
 H         4.281427        4.828505        1.059744
 H         5.996132        5.078177        2.557602
 H         5.984487        5.058925        4.104922
 H         5.160259        3.510826        5.590604
 H         5.580953        4.793054        6.344033
 H         2.568240       14.489647        5.613703
 H         2.123917        1.144663        6.395094
 H         3.453512        5.050010        5.561691
 H         2.133491        5.079415        4.761454
 H         5.227095        2.728338        1.123430
 H         5.682450        1.469908        1.902594
 H         5.605261        1.405513        6.376607
 H         4.264038        1.414439        5.610016
 H         1.241816        3.534729        7.801599
 H         1.671523        4.781770        6.997326
 H         0.421142        4.832678        3.279037
 H         1.760164        4.846332        2.501090
 H         2.606626        6.381518        1.046496
 H         2.159487        5.116210        0.265655
 H         3.551294        1.168537        1.123922
 H         2.213485        1.167878        1.893326
 H         6.023644        1.142824        4.147805
 H         6.474994       14.487211        3.373052
 H         6.021645        1.131508        8.610004
 H         6.450604       14.460461        7.843133
 H         7.317977        5.090413        7.767615
 H         6.473932        6.381376        7.787909
 H         0.379250        1.424740        7.860762
 H         1.721706        1.432978        8.633748
 H         9.518184        1.430285        4.126973
 H         8.167227        1.428435        3.375331
 H        12.936151        3.524599        1.105030
 H        12.033204        4.782700        1.124376
 H        13.786097        5.061004        2.568176
 H        13.812664        5.092276        4.112202
 H        12.047443        4.844920        5.574079
 H        13.353598        4.850483        6.398032
 H        11.305778        1.126645        5.553339
 H        10.427021       14.453600        5.544453
 H         9.880582        5.063129        6.247517
 H         9.908067        5.113740        4.714577
 H        12.077240        1.420144        1.074583
 H        13.414696        1.409002        0.292606
 H        13.451306        1.482376        4.764493
 H        12.978113        2.730501        5.543042
 H         9.034388        3.442960        7.714402
 H         9.520214        4.702814        8.440154
 H         8.127669        4.793341        3.329789
 H         9.034160        3.538585        3.334630
 H         9.908316        5.059482        0.351143
 H         9.892218        5.085863        1.891583
 H         9.909670        1.176284        0.341377
 H         9.914033        1.205232        1.887220
 H        15.203629        1.219993        3.301309
 H        13.861977        1.199707        2.526072
 H        13.743122        1.227013        8.583376
 H        13.772150        1.199785        7.039202
 H        15.080556        5.108080        7.882787
 H        14.248451        6.410971        7.859756
 H         9.494309        1.378584        6.969176
 H         8.146844        1.383279        7.745433
 H         1.782280        1.475912       13.125626
 H         1.336748        2.740842       12.349957
 H         4.153443        4.827416        9.980273
 H         5.512126        4.833260        9.238111
 H         5.832522        5.112103       11.477380
 H         5.938896        5.080094       13.030427
 H         4.281628        4.827408       14.571476
 H         5.636672        4.831002       15.318302
 H         3.542818        1.142448       14.560189
 H         2.642758       14.486962       14.571950
 H         2.128398        5.063838       15.322816
 H         2.132755        5.095782       13.777565
 H         5.650530        1.463988       10.857975
 H         5.162848        2.712872       10.080030
 H         5.673625        1.449531       13.758935
 H         5.216549        2.714833       14.520591
 H         0.411036        4.773224       16.819849
 H         1.309578        3.511126       16.798794
 H         0.386374        4.840914       12.278243
 H         1.709675        4.847576       11.490920
 H         2.515702        6.405274       10.005584
 H         2.035707        5.148318        9.227922
 H         2.172201        1.189060       10.876453
 H         3.498979        1.182620       10.086744
 H         7.424228        1.088864       12.305961
 H         6.508891       14.455293       12.303023
 H         6.026419        1.166219       17.575188
 H         6.021493        1.161762       16.027090
 H         7.398858        5.092860       16.803747
 H         6.528196        6.368335       16.796455
 H         1.817498        1.410303       17.584911
 H         1.808774        1.412966       16.037823
 H         8.205126        8.704674       12.317007
 H         9.561675        8.685640       13.063976
 H        13.035017       10.849374       10.052151
 H        13.437160       12.120060        9.276481
 H        13.824233       12.432308       11.531739
 H        14.263052       13.703706       12.291334
 H        13.484521       12.146997       13.797682
 H        13.496122       12.117141       15.347355
 H        10.466229        7.192677       14.581717
 H        11.331038        8.464508       14.546383
 H        10.455046       13.610656       14.591838
 H        11.347229       12.354060       14.578136
 H        12.133394        8.746158       10.022314
 H        13.458244        8.733198        9.232923
 H        13.469624        8.769660       13.776001
 H        13.023754       10.025390       14.551945
 H         9.601102       12.113768       16.052435
 H         9.584616       12.134528       17.599087
 H         9.580715       12.066964       13.126995
 H         9.132500       10.817411       12.337595
 H         9.962817       12.352924       10.863490
 H        11.295797       12.347093       10.079812
 H         9.888048        8.468722       10.832583
 H         9.886074        8.484791        9.257949
 H        13.905112        8.499950       11.522234
 H        15.235070        8.505878       12.312288
 H        13.812256        8.465765       16.044865
 H        13.788589        8.487756       17.589527
 H        13.854322       12.354913       17.614620
 H        15.202056       12.332477       16.852043
 H         9.114225       10.027266       16.796118
 H         9.562699        8.773478       16.010475
 H         1.370072       10.053504       12.354917
 H         1.818928        8.787801       13.129062
 H         5.190822       10.833541       10.087805
 H         5.649897       12.085427       10.863710
 H         7.413813       12.349435       12.340175
 H         6.076923       12.358773       13.116255
 H         5.653764       12.127845       15.371413
 H         4.312927       12.136905       14.596835
 H         2.617856        7.196948       14.582369
 H         2.169220        8.444048       15.372720
 H         2.153787       12.365275       15.345743
 H         2.154941       12.390044       13.798449
 H         5.683045        8.734176       10.835780
 H         5.678198        8.733840        9.288111
 H         4.305906        8.768245       14.563790
 H         5.193777       10.033605       14.560052
 H         1.802733       12.069555       17.600721
 H         1.352889       10.800974       16.835979
 H         1.758740       12.149630       11.530923
 H         0.421949       12.151567       12.305389
 H         3.506011       12.420339       10.067160
 H         2.620667       13.688652       10.065385
 H         3.516619        8.481138       10.083180
 H         2.189261        8.507380       10.874226
 H         6.053749        8.489256       13.103216
 H         6.436378        7.218614       12.316045
 H         7.418189        8.485041       16.773342
 H         6.078479        8.479347       16.004211
 H         7.440670       12.402875       16.815727
 H         6.532106       13.654133       16.815702
 H         0.422526        8.704133       16.843992
 H         1.767311        8.702191       17.613255
384
 generated by VMD
 O         9.166839        1.634864       12.311599
 O        12.797727        4.788622       10.118868
 O        14.210765        5.452591       12.295363
 O        13.087755        4.487763       14.612648
 O        10.439300        0.778182       14.611012
 O        10.534491        5.342854       14.656299
 O        12.903729        1.833475       10.063190
 O        13.015990        1.745577       14.592566
 O         9.084529        4.458762       16.851273
 O         8.864550        4.656497       11.848105
 O        10.514331        5.658038       10.072784
 O        10.372911        0.792660       10.006949
 O        14.278281        0.874489       12.296224
 O        14.298626        0.808382       16.811598
 O        14.301166        5.404603       16.877325
 O         9.082569        1.716213       16.815832
 O         9.092268        9.053715        3.355081
 O        12.974134       11.804614        1.126813
 O        14.281341       12.749642        3.352302
 O        12.985955       11.811932        5.564429
 O        10.432438        8.167519        5.595994
 O        10.384659       12.680674        5.546795
 O        12.962367        9.068757        1.097039
 O        13.029003        9.071882        5.550558
 O         9.078135       11.785841        7.807180
 O         9.045272       11.796293        3.341418
 O        10.401008       12.731407        1.135399
 O        10.378345        8.146697        1.109096
 O        14.295814        8.146817        3.304541
 O        14.282200        8.166051        7.789631
 O        14.243283       12.729302        7.822119
 O         9.135716        9.063503        7.835568
 O         1.343293        9.060388        3.347853
 O         5.210614       11.777659        1.102380
 O         6.463401       12.704129        3.359168
 O         5.159298       11.796029        5.594932
 O         2.595272        8.121196        5.592257
 O         2.576163       12.705167        5.590597
 O         5.220878        9.038059        1.100429
 O         5.181129        9.051157        5.558730
 O         1.287593       11.803895        7.837439
 O         1.317408       11.795319        3.329238
 O         2.633333       12.689631        1.097730
 O         2.632105        8.151452        1.108606
 O         6.508563        8.130156        3.338525
 O         6.507493        8.165362        7.795836
 O         6.479413       12.686479        7.827686
 O         1.322744        9.069530        7.828886
 O         1.359881        1.778167        3.329867
 O         5.186646        4.499481        1.091218
 O         6.465071        5.391079        3.339147
 O         5.134170        4.473588        5.553891
 O         2.588828        0.850433        5.604600
 O         2.549540        5.382607        5.576273
 O         5.223539        1.765085        1.109415
 O         5.171117        1.739437        5.584137
 O         1.205924        4.497686        7.791885
 O         1.329106        4.512218        3.295615
 O         2.613035        5.418414        1.060195
 O         2.649586        0.830117        1.103758
 O         6.499682        0.847876        3.363714
 O         6.463804        0.821541        7.813017
 O         6.417083        5.419600        7.793572
 O         1.282908        1.756302        7.839362
 O         9.067414        1.771833        3.347525
 O        12.950669        4.487674        1.133212
 O        14.270830        5.406350        3.327127
 O        12.954571        4.521775        5.588671
 O        10.395095        0.814253        5.548711
 O        10.367232        5.427555        5.503580
 O        12.981965        1.750413        1.082569
 O        12.977189        1.768508        5.553293
 O         9.023085        4.412409        7.686089
 O         9.046585        4.502409        3.319999
 O        10.374392        5.404933        1.120645
 O        10.386381        0.866487        1.119303
 O        14.299790        0.888213        3.325666
 O        14.219452        0.872339        7.827487
 O        14.178885        5.450337        7.921263
 O         9.050597        1.719043        7.754251
 O         1.332727        1.778316       12.329486
 O         5.059701        4.500489       10.019193
 O         6.346788        5.431087       12.229204
 O         5.188470        4.503870       14.531436
 O         2.625859        0.847890       14.573733
 O         2.600813        5.409947       14.557150
 O         5.179749        1.750891       10.068942
 O         5.211411        1.752634       14.547024
 O         1.326244        4.474284       16.783012
 O         1.292167        4.519962       12.294881
 O         2.501826        5.442032       10.017524
 O         2.591943        0.858138       10.075033
 O         6.503572        0.816951       12.302229
 O         6.485200        0.824681       16.800634
 O         6.489066        5.405788       16.795427
 O         1.338748        1.735389       16.814981
 O         9.121028        9.005787       12.268278
 O        12.998248       11.809746       10.076471
 O        14.281896       12.740909       12.320493
 O        13.027937       11.795106       14.569188
 O        10.418730        8.150448       14.547534
 O        10.429287       12.647077       14.586958
 O        13.037737        9.054685       10.040304
 O        13.000286        9.061685       14.563890
 O         9.119322       11.799257       16.826044
 O         9.119189       11.777947       12.331549
 O        10.386047       12.662442       10.055769
 O        10.340354        8.128494       10.041286
 O        14.327580        8.179945       12.324066
 O        14.267378        8.140731       16.828470
 O        14.301433       12.674471       16.824127
 O         9.094151        9.063543       16.798796
 O         1.370740        9.090018       12.331508
 O         5.179090       11.796258       10.074755
 O         6.507071       12.670616       12.312821
 O         5.216750       11.805266       14.575787
 O         2.634541        8.159717       14.578165
 O         2.622490       12.708635       14.577593
 O         5.205386        9.052752       10.062941
 O         5.220601        9.070479       14.548568
 O         1.339163       11.763744       16.813334
 O         1.326687       11.820829       12.326469
 O         2.592773       12.725422       10.062148
 O         2.602874        8.177308       10.068730
 O         6.514617        8.176919       12.315142
 O         6.515840        8.148310       16.795568
 O         6.521710       12.690866       16.818609
 O         1.330629        9.023930       16.817072
 H         9.229113        2.580910       12.316880
 H         9.600492        1.348839       11.496178
 H        13.312792        5.027905       10.910235
 H        13.323092        5.031530        9.335484
 H        14.247287        6.414952       12.354447
 H        13.806356        5.133367       13.110630
 H        13.540895        4.776907       15.413248
 H        13.082215        3.523043       14.620627
 H        11.336043        1.131256       14.594427
 H        10.019001        1.076607       13.800300
 H        11.457315        5.043667       14.667353
 H        10.157500        4.924775       13.894107
 H        12.005549        1.479952       10.059122
 H        12.816139        2.782590       10.101723
 H        13.489766        1.391243       15.353606
 H        13.470794        1.427513       13.806629
 H         9.589557        4.751314       16.088800
 H         9.089687        3.495045       16.823664
 H         9.936945        5.285573       10.763071
 H         7.938136        4.950027       11.970931
 H        10.444001        6.683924       10.064429
 H        11.500433        5.302019       10.129946
 H         9.901474        1.085591        9.220845
 H        10.373087       14.430293        9.993030
 H        15.182611        1.205925       12.272853
 H        13.826776        1.227778       11.525890
 H        15.213018        1.111780       16.821194
 H        14.325949       14.447467       16.821724
 H        13.818698        5.111207       17.657711
 H        14.278430        6.367943       16.878679
 H         9.534010        1.379289       16.034956
 H         8.177717        1.388270       16.781116
 H         9.560631        8.727310        2.579028
 H         9.580135        8.745797        4.125067
 H        13.413752       12.145582        1.912545
 H        12.073393       12.146481        1.145461
 H        14.318656       13.712088        3.342597
 H        15.191421       12.434197        3.339664
 H        12.073120       12.116934        5.532482
 H        13.425314       12.162579        4.781309
 H        11.351689        8.453903        5.575742
 H        10.434927        7.204872        5.568469
 H         9.916652       12.364905        6.325839
 H         9.897148       12.357533        4.780383
 H        12.941175       10.032060        1.115068
 H        12.047388        8.768124        1.103425
 H        13.474883        8.772777        4.750396
 H        13.025754       10.035389        5.527570
 H         9.516667       12.111011        8.600708
 H         8.172057       12.112309        7.833316
 H         9.031528       10.833626        3.335369
 H         8.127843       12.090581        3.346374
 H        10.380013       13.694512        1.153808
 H         9.919134       12.427395        1.911240
 H         9.921159        8.444620        0.315801
 H        10.367106        7.183415        1.089666
 H        14.274518        7.183847        3.289804
 H        13.826390        8.447975        2.518970
 H        13.863498        8.498063        6.986223
 H        15.189873        8.492339        7.786722
 H        14.219880       13.691822        7.807077
 H        13.793029       12.428707        7.025119
 H         9.125137       10.028866        7.809796
 H         9.601690        8.768984        7.043945
 H         0.440492        8.724693        3.344697
 H         1.762451        8.723374        4.147066
 H         5.680964       12.078027        0.317099
 H         5.224807       10.814716        1.081991
 H         6.001653       12.372133        2.581841
 H         5.985780       12.377231        4.129160
 H         5.136828       10.833559        5.579575
 H         4.243641       12.096101        5.594759
 H         2.151730        8.433528        6.387900
 H         2.566324        7.158571        5.612462
 H         2.101563       12.376210        6.361340
 H         2.113882       12.376750        4.812024
 H         5.695780        8.706147        1.870002
 H         5.686361        8.710310        0.323369
 H         5.619174        8.722260        4.766540
 H         4.283066        8.703799        5.548199
 H         0.385220       12.139798        7.858196
 H         1.730545       12.143638        8.622931
 H         1.331992       10.832292        3.316115
 H         1.787292       12.090893        2.541851
 H         3.549220       12.390559        1.098686
 H         2.656510       13.652624        1.100424
 H         3.539766        8.474523        1.121785
 H         2.204942        8.479285        1.907215
 H         7.425104        8.424956        3.353266
 H         6.523214        7.167073        3.343637
 H         6.065341        8.494430        7.005309
 H         7.409641        8.495322        7.771216
 H         6.010508       12.358006        8.602509
 H         6.000895       12.363229        7.056714
 H         1.322332       10.033309        7.844870
 H         1.775219        8.782153        8.629857
 H         1.369809        2.741318        3.340941
 H         1.792843        1.481312        4.136958
 H         5.628555        4.829074        0.301384
 H         4.281427        4.828505        1.059744
 H         5.996132        5.078177        2.557602
 H         5.984487        5.058925        4.104922
 H         5.160259        3.510826        5.590604
 H         5.580953        4.793054        6.344033
 H         2.568240       14.489647        5.613703
 H         2.123917        1.144663        6.395094
 H         3.453512        5.050010        5.561691
 H         2.133491        5.079415        4.761454
 H         5.227095        2.728338        1.123430
 H         5.682450        1.469908        1.902594
 H         5.605261        1.405513        6.376607
 H         4.264038        1.414439        5.610016
 H         1.241816        3.534729        7.801599
 H         1.671523        4.781770        6.997326
 H         0.421142        4.832678        3.279037
 H         1.760164        4.846332        2.501090
 H         2.606626        6.381518        1.046496
 H         2.159487        5.116210        0.265655
 H         3.551294        1.168537        1.123922
 H         2.213485        1.167878        1.893326
 H         6.023644        1.142824        4.147805
 H         6.474994       14.487211        3.373052
 H         6.021645        1.131508        8.610004
 H         6.450604       14.460461        7.843133
 H         7.317977        5.090413        7.767615
 H         6.473932        6.381376        7.787909
 H         0.379250        1.424740        7.860762
 H         1.721706        1.432978        8.633748
 H         9.518184        1.430285        4.126973
 H         8.167227        1.428435        3.375331
 H        12.936151        3.524599        1.105030
 H        12.033204        4.782700        1.124376
 H        13.786097        5.061004        2.568176
 H        13.812664        5.092276        4.112202
 H        12.047443        4.844920        5.574079
 H        13.353598        4.850483        6.398032
 H        11.305778        1.126645        5.553339
 H        10.427021       14.453600        5.544453
 H         9.880582        5.063129        6.247517
 H         9.908067        5.113740        4.714577
 H        12.077240        1.420144        1.074583
 H        13.414696        1.409002        0.292606
 H        13.451306        1.482376        4.764493
 H        12.978113        2.730501        5.543042
 H         9.034388        3.442960        7.714402
 H         9.520214        4.702814        8.440154
 H         8.127669        4.793341        3.329789
 H         9.034160        3.538585        3.334630
 H         9.908316        5.059482        0.351143
 H         9.892218        5.085863        1.891583
 H         9.909670        1.176284        0.341377
 H         9.914033        1.205232        1.887220
 H        15.203629        1.219993        3.301309
 H        13.861977        1.199707        2.526072
 H        13.743122        1.227013        8.583376
 H        13.772150        1.199785        7.039202
 H        15.080556        5.108080        7.882787
 H        14.248451        6.410971        7.859756
 H         9.494309        1.378584        6.969176
 H         8.146844        1.383279        7.745433
 H         1.782280        1.475912       13.125626
 H         1.336748        2.740842       12.349957
 H         4.153443        4.827416        9.980273
 H         5.512126        4.833260        9.238111
 H         5.832522        5.112103       11.477380
 H         5.938896        5.080094       13.030427
 H         4.281628        4.827408       14.571476
 H         5.636672        4.831002       15.318302
 H         3.542818        1.142448       14.560189
 H         2.642758       14.486962       14.571950
 H         2.128398        5.063838       15.322816
 H         2.132755        5.095782       13.777565
 H         5.650530        1.463988       10.857975
 H         5.162848        2.712872       10.080030
 H         5.673625        1.449531       13.758935
 H         5.216549        2.714833       14.520591
 H         0.411036        4.773224       16.819849
 H         1.309578        3.511126       16.798794
 H         0.386374        4.840914       12.278243
 H         1.709675        4.847576       11.490920
 H         2.515702        6.405274       10.005584
 H         2.035707        5.148318        9.227922
 H         2.172201        1.189060       10.876453
 H         3.498979        1.182620       10.086744
 H         7.424228        1.088864       12.305961
 H         6.508891       14.455293       12.303023
 H         6.026419        1.166219       17.575188
 H         6.021493        1.161762       16.027090
 H         7.398858        5.092860       16.803747
 H         6.528196        6.368335       16.796455
 H         1.817498        1.410303       17.584911
 H         1.808774        1.412966       16.037823
 H         8.205126        8.704674       12.317007
 H         9.561675        8.685640       13.063976
 H        13.035017       10.849374       10.052151
 H        13.437160       12.120060        9.276481
 H        13.824233       12.432308       11.531739
 H        14.263052       13.703706       12.291334
 H        13.484521       12.146997       13.797682
 H        13.496122       12.117141       15.347355
 H        10.466229        7.192677       14.581717
 H        11.331038        8.464508       14.546383
 H        10.455046       13.610656       14.591838
 H        11.347229       12.354060       14.578136
 H        12.133394        8.746158       10.022314
 H        13.458244        8.733198        9.232923
 H        13.469624        8.769660       13.776001
 H        13.023754       10.025390       14.551945
 H         9.601102       12.113768       16.052435
 H         9.584616       12.134528       17.599087
 H         9.580715       12.066964       13.126995
 H         9.132500       10.817411       12.337595
 H         9.962817       12.352924       10.863490
 H        11.295797       12.347093       10.079812
 H         9.888048        8.468722       10.832583
 H         9.886074        8.484791        9.257949
 H        13.905112        8.499950       11.522234
 H        15.235070        8.505878       12.312288
 H        13.812256        8.465765       16.044865
 H        13.788589        8.487756       17.589527
 H        13.854322       12.354913       17.614620
 H        15.202056       12.332477       16.852043
 H         9.114225       10.027266       16.796118
 H         9.562699        8.773478       16.010475
 H         1.370072       10.053504       12.354917
 H         1.818928        8.787801       13.129062
 H         5.190822       10.833541       10.087805
 H         5.649897       12.085427       10.863710
 H         7.413813       12.349435       12.340175
 H         6.076923       12.358773       13.116255
 H         5.653764       12.127845       15.371413
 H         4.312927       12.136905       14.596835
 H         2.617856        7.196948       14.582369
 H         2.169220        8.444048       15.372720
 H         2.153787       12.365275       15.345743
 H         2.154941       12.390044       13.798449
 H         5.683045        8.734176       10.835780
 H         5.678198        8.733840        9.288111
 H         4.305906        8.768245       14.563790
 H         5.193777       10.033605       14.560052
 H         1.802733       12.069555       17.600721
 H         1.352889       10.800974       16.835979
 H         1.758740       12.149630       11.530923
 H         0.421949       12.151567       12.305389
 H         3.506011       12.420339       10.067160
 H         2.620667       13.688652       10.065385
 H         3.516619        8.481138       10.083180
 H         2.189261        8.507380       10.874226
 H         6.053749        8.489256       13.103216
 H         6.436378        7.218614       12.316045
 H         7.418189        8.485041       16.773342
 H         6.078479        8.479347       16.004211
 H         7.440670       12.402875       16.815727
 H         6.532106       13.654133       16.815702
 H         0.422526        8.704133       16.843992
 H         1.767311        8.702191       17.613255
