384
 generated by VMD
 O         9.117336        1.761390       12.298246
 O        12.966230        4.484369       10.049629
 O        14.224276        5.352094       12.314978
 O        12.943080        4.514486       14.578564
 O        10.392977        0.834993       14.541012
 O        10.355914        5.434284       14.595281
 O        12.979186        1.733340       10.090039
 O        12.981241        1.773055       14.549951
 O         9.100171        4.477781       16.838091
 O         9.117961        4.497583       12.335604
 O        10.384951        5.408057       10.083264
 O        10.400952        0.827446       10.069522
 O        14.284255        0.832949       12.317515
 O        14.214829        0.888242       16.841421
 O        14.196717        5.436063       16.829346
 O         9.111476        1.737963       16.801662
 O         9.082087        9.037485        3.362941
 O        12.882947       11.805727        1.170627
 O        14.277392       12.728148        3.346931
 O        13.001788       11.798648        5.575726
 O        10.386053        8.102377        5.581210
 O        10.414373       12.712098        5.583153
 O        12.954477        9.064953        1.105199
 O        12.974524        9.056538        5.537495
 O         9.118827       11.787556        7.801890
 O         9.083619       11.779380        3.365350
 O        10.306126       12.692611        1.101466
 O        10.363747        8.146123        1.110906
 O        14.270771        8.149003        3.318724
 O        14.258988        8.152490        7.785539
 O        14.293120       12.658544        7.821928
 O         9.077389        9.042940        7.814094
 O         1.323914        9.073509        3.361513
 O         5.278387       11.850354        0.928168
 O         6.497134       12.709344        3.256519
 O         5.196723       11.828021        5.533304
 O         2.597383        8.143075        5.599811
 O         2.643121       12.759973        5.550789
 O         5.215143        9.103073        1.086277
 O         5.165948        9.090894        5.580504
 O         1.372232       11.795346        7.754413
 O         1.318325       11.807390        3.390095
 O         2.629102       12.736132        1.224644
 O         2.622574        8.229152        1.093928
 O         6.474885        8.178576        3.351932
 O         6.476644        8.186316        7.799052
 O         6.521254       12.661226        7.785260
 O         1.313593        9.060264        7.834014
 O         1.321467        1.835666        3.397730
 O         5.201972        4.501903        1.107053
 O         6.507238        5.434010        3.336138
 O         5.224894        4.496186        5.571554
 O         2.609787        0.892012        5.607529
 O         2.631111        5.408000        5.596919
 O         5.216308        1.760663        1.099201
 O         5.212713        1.755322        5.585497
 O         1.319674        4.491502        7.824766
 O         1.343189        4.574687        3.335675
 O         2.635833        5.487600        1.104916
 O         2.596749        0.908972        1.188450
 O         6.517779        0.852084        3.339255
 O         6.513440        0.796673        7.807613
 O         6.515215        5.432640        7.801784
 O         1.287382        1.754567        7.854254
 O         9.095567        1.780337        3.354088
 O        12.947008        4.467696        1.127604
 O        14.260784        5.412353        3.329659
 O        12.990521        4.471225        5.586230
 O        10.378877        0.844474        5.591260
 O        10.403119        5.365088        5.611364
 O        12.936007        1.731094        1.143095
 O        12.980950        1.733699        5.619395
 O         9.094289        4.483307        7.855712
 O         9.085548        4.514848        3.368237
 O        10.373467        5.397091        1.132733
 O        10.364883        0.837878        1.110096
 O        14.289257        0.870168        3.369397
 O        14.246801        0.798291        7.852036
 O        14.272066        5.412076        7.826471
 O         9.083693        1.744297        7.839251
 O         1.328197        1.773844       12.326982
 O         5.245204        4.477634       10.042515
 O         6.538829        5.418885       12.262596
 O         5.224312        4.645016       14.552624
 O         2.626280        1.149543       14.692037
 O         2.583642        5.422732       14.552315
 O         5.204917        1.731907       10.017003
 O         5.281007        1.919360       14.556540
 O         1.266325        4.636182       16.844849
 O         1.299386        4.518179       12.311664
 O         2.641080        5.375125       10.060748
 O         2.610484        0.848979       10.067139
 O         6.506554        0.912381       12.253041
 O         6.511424        0.839513       16.747183
 O         6.536150        5.397689       16.836731
 O         1.233346        1.935760       16.960714
 O         9.060798        9.076241       12.278672
 O        12.967148       11.766254       10.035915
 O        14.281354       12.681313       12.270559
 O        12.977741       11.788870       14.533635
 O        10.354725        8.178524       14.549936
 O        10.398787       12.677438       14.504303
 O        12.957560        9.016733       10.033667
 O        12.930521        9.048626       14.510569
 O         9.059021       11.834526       16.777225
 O         9.076145       11.842348       12.271603
 O        10.399591       12.679016       10.053897
 O        10.361477        8.142308       10.043970
 O        14.194242        8.076125       12.280144
 O        14.190667        8.160048       16.790344
 O        14.094792       12.748227       16.840788
 O         9.082771        9.073460       16.794415
 O         1.240774        8.911986       12.272083
 O         5.273643       11.787955       10.111314
 O         6.541434       12.645574       12.335881
 O         5.359881       11.954764       14.422150
 O         2.543012        8.166284       14.595582
 O         2.908607       12.324998       13.914837
 O         5.176209        9.060622       10.072560
 O         5.234216        8.944111       14.629994
 O         1.144067       11.853439       17.007500
 O         1.252482       11.605379       11.964795
 O         2.711355       12.717183        9.953440
 O         2.617429        8.107472       10.065540
 O         6.484485        8.123390       12.299221
 O         6.527174        8.099756       16.824610
 O         6.340146       12.776278       16.545393
 O         1.249071        9.096049       16.825289
 H         9.553633        1.425987       11.507043
 H         8.203536        1.463378       12.258079
 H        12.061896        4.814564       10.074170
 H        13.392900        4.794394       10.855967
 H        15.137147        5.044934       12.334736
 H        13.799109        5.034760       13.119323
 H        12.042106        4.852884       14.596683
 H        13.373841        4.837399       15.377967
 H        10.394837       14.475956       14.508991
 H         9.935628        1.136925       13.749257
 H        10.335709        6.396688       14.604690
 H         9.910099        5.131783       15.393552
 H        12.985246        2.696338       10.087845
 H        13.443482        1.452751       10.887023
 H        12.070756        1.462377       14.548341
 H        12.943393        2.735159       14.557584
 H         9.556304        4.770939       17.634775
 H         9.125060        3.514695       16.838406
 H         9.554538        4.800043       13.139102
 H         9.142577        3.534845       12.346751
 H         9.940865        5.113940       10.885623
 H        10.366940        6.371195       10.090134
 H        10.425653       14.467416       10.058770
 H        11.316818        1.128041       10.076643
 H        15.190220        1.159728       12.345927
 H        13.850072        1.160756       13.112252
 H        13.803799        1.213308       16.033810
 H        15.116493        1.225912       16.849163
 H        13.779394        5.082423       17.621958
 H        15.116732        5.147639       16.845945
 H         9.573573        1.403446       17.578770
 H         9.585031        1.409361       16.030832
 H         9.519966        8.686145        4.145922
 H         8.172429        8.722300        3.386195
 H        12.929420       10.843838        1.167769
 H        13.376485       12.109603        1.939919
 H        15.192249       12.424960        3.346452
 H        14.305585       13.690905        3.353489
 H        12.997111       10.836416        5.535728
 H        13.456178       12.109042        4.784037
 H        10.389066        7.139573        5.615207
 H         9.932487        8.406735        6.373569
 H        11.332099       12.419554        5.579504
 H        10.426216       13.675459        5.582029
 H        13.374604        8.749209        0.297099
 H        12.050714        8.733975        1.093171
 H        13.407766        8.720289        4.744459
 H        12.074593        8.715763        5.529311
 H         9.562556       12.124269        7.014993
 H         8.212035       12.108732        7.768186
 H         9.552225       12.085034        4.148860
 H         9.092754       10.816616        3.392398
 H        11.212852       12.364964        1.133001
 H         9.878126       12.363585        1.900159
 H         9.897117        8.476530        1.886288
 H         9.899341        8.483767        0.339500
 H        13.814339        8.451275        2.525681
 H        14.255565        7.185915        3.296998
 H        15.160650        8.490743        7.786480
 H        13.834583        8.481915        6.986022
 H        13.859663       12.343138        7.020648
 H        15.204413       12.349915        7.784760
 H         9.076196       10.005934        7.799271
 H         8.155098        8.764900        7.800425
 H         1.752992        8.729815        4.152268
 H         0.423110        8.734097        3.363411
 H         5.257852       10.888794        0.982969
 H         5.728705       12.153362        1.724008
 H         6.527190       13.671373        3.284236
 H         7.408742       12.404241        3.302392
 H         4.299083       12.181019        5.513264
 H         5.632572       12.139584        4.733465
 H         2.606647        7.179763        5.619185
 H         2.141034        8.434924        6.396003
 H         2.161544       12.447638        4.774732
 H         2.606750       13.722692        5.541410
 H         5.650880        8.727047        0.315981
 H         4.301113        8.797688        1.065465
 H         4.252075        8.785372        5.583772
 H         5.142707       10.053766        5.558601
 H         1.859004       12.145348        8.507206
 H         1.820573       12.132865        6.970072
 H         1.325354       10.844337        3.372015
 H         1.809454       12.102730        2.613109
 H         3.529365       12.431668        1.084309
 H         2.118539       12.428349        0.469764
 H         2.125546        8.549513        0.333513
 H         2.158225        8.540192        1.878172
 H         6.019542        8.520526        2.575390
 H         5.997010        8.507931        4.120542
 H         6.005060        8.499537        8.576575
 H         5.999856        8.521151        7.030859
 H         6.067154       12.329904        8.564217
 H         6.035737       12.349377        7.012988
 H         1.355463       10.022902        7.832902
 H         1.771021        8.756340        8.624376
 H         1.782111        1.515381        2.612490
 H         1.338173        2.797330        3.352116
 H         5.172690        3.539094        1.107836
 H         4.290952        4.814526        1.100057
 H         6.478699        6.396511        3.318423
 H         6.049441        5.127090        2.546223
 H         5.676641        4.795375        4.775380
 H         5.238981        3.533160        5.559020
 H         2.145821        1.246622        4.839904
 H         2.131443        1.199201        6.384431
 H         3.534414        5.075635        5.572035
 H         2.198754        5.101459        4.791889
 H         5.663361        1.420884        0.319932
 H         5.693430        1.427126        1.866213
 H         5.647527        1.406160        6.369738
 H         4.301183        1.443976        5.609958
 H         0.421833        4.839984        7.810138
 H         1.758533        4.814514        7.030466
 H         1.775830        4.913208        2.543899
 H         0.432240        4.885474        3.311379
 H         2.156323        5.210785        0.315830
 H         2.637609        6.450797        1.094809
 H         3.516063        1.188710        1.139090
 H         2.610358       14.549145        1.163101
 H         6.070946        1.167837        4.131382
 H         7.417232        1.194896        3.370322
 H         6.546862       14.436821        7.794462
 H         7.424600        1.109487        7.818802
 H         6.060528        5.125936        7.009608
 H         6.487091        6.394645        7.782374
 H         0.375461        1.445615        7.848192
 H         1.261700        2.717450        7.841333
 H         9.104795        2.743238        3.330108
 H         9.544867        1.474640        2.559014
 H        12.033781        4.773279        1.130940
 H        12.920512        3.504571        1.127667
 H        13.807405        5.074583        4.108594
 H        13.788806        5.064090        2.564967
 H        13.009263        3.508536        5.615735
 H        13.446774        4.781539        6.375246
 H         9.917953        1.183377        4.816365
 H         9.907020        1.172974        6.363390
 H        11.308122        5.033795        5.618678
 H         9.975653        5.032470        6.407343
 H        13.403839        1.425278        0.356853
 H        13.431576        1.417724        1.907235
 H        12.071812        1.417363        5.625983
 H        13.403136        1.384416        6.411885
 H         9.521933        4.821121        8.650107
 H         8.196702        4.831847        7.852436
 H         8.183966        4.853914        3.384335
 H         9.523057        4.825929        4.168003
 H         9.913675        5.113548        1.930908
 H        10.363691        6.359888        1.137440
 H        10.366096       14.477170        1.119445
 H        11.287530        1.118580        1.128913
 H        13.846542        1.181681        4.165617
 H        15.183889        1.227013        3.392535
 H        13.796531        1.092253        8.651070
 H        14.254576       14.437499        7.867336
 H        13.811419        5.116007        8.618931
 H        14.252098        6.374854        7.832417
 H         9.090108        2.707172        7.868128
 H         9.552750        1.441394        8.623642
 H         1.318409        2.737011       12.328443
 H         1.778180        1.515151       13.137389
 H         5.689186        4.791367        9.247522
 H         5.249821        3.515648       10.005877
 H         6.099950        5.065551       11.480632
 H         7.438659        5.074985       12.262390
 H         5.708380        4.938828       15.331655
 H         5.703365        4.953006       13.777514
 H         2.623408       14.837365       14.977896
 H         3.556295        1.405415       14.668243
 H         2.576997        6.384854       14.571701
 H         3.508837        5.157752       14.562029
 H         5.635590        1.382649        9.228797
 H         4.293091        1.420217       10.006941
 H         5.287094        2.882976       14.530209
 H         5.695322        1.610071       13.748046
 H         1.263463        3.671539       16.890207
 H         1.729986        4.873221       16.035887
 H         1.781065        4.831631       11.539898
 H         1.769195        4.847862       13.085666
 H         2.200050        5.046988        9.269773
 H         3.544457        5.044385       10.036200
 H         2.119650        1.181509        9.306933
 H         2.161316        1.177896       10.853398
 H         6.491059       14.559624       12.260745
 H         6.036798        1.187081       11.455029
 H         7.421017        1.158569       16.753826
 H         6.081119        1.247875       15.986693
 H         6.076237        5.062014       17.614695
 H         7.432497        5.043815       16.865202
 H         1.708785        1.556913       17.708344
 H         1.727617        1.672651       16.179653
 H         9.036821       10.036942       12.272999
 H         8.148075        8.769938       12.286943
 H        13.444192       12.053587        9.248966
 H        12.980434       10.803376       10.028785
 H        14.285290       13.644480       12.274508
 H        13.795144       12.404755       11.487352
 H        13.467978       12.121172       13.774967
 H        13.409289       12.132284       15.324596
 H         9.921303        8.496984       13.752790
 H        11.265233        8.496400       14.515958
 H        11.307235       12.352103       14.526402
 H         9.970849       12.368089       15.307339
 H        12.048949        8.698719       10.007334
 H        13.391315        8.699794        9.233933
 H        12.976924       10.010755       14.499666
 H        13.384665        8.734699       13.721609
 H         8.167943       12.178842       16.755390
 H         9.470997       12.158195       17.588831
 H         9.562103       12.149811       11.495216
 H         9.563440       12.144862       13.047924
 H         9.963550       12.358692        9.256366
 H        11.303192       12.342658       10.027525
 H         9.898281        8.484859       10.814676
 H         9.886982        8.467272        9.270184
 H        14.176233        7.112344       12.270501
 H        13.756294        8.376041       11.475943
 H        13.750115        8.443934       15.983521
 H        14.177666        7.196019       16.791769
 H        13.641660       12.459760       17.639448
 H        14.130160       13.710528       16.861406
 H         9.080974       10.034579       16.776747
 H         9.542951        8.783403       15.998574
 H         0.333941        8.583921       12.301790
 H         1.665621        8.656664       13.096379
 H         4.367444       12.116799       10.064791
 H         5.216238       10.824722       10.092005
 H         6.094507       12.323935       11.535673
 H         7.471837       12.366112       12.282632
 H         5.881109       12.243340       13.593922
 H         5.713872       12.346820       15.308068
 H         3.454747        8.460440       14.634019
 H         2.107065        8.509048       15.384903
 H         4.397934       12.126220       14.268124
 H         2.338809       12.050782       13.172757
 H         4.275316        8.716440       10.087184
 H         5.613799        8.714490       10.856914
 H         5.303947        9.889734       14.649913
 H         5.696018        8.627604       15.421665
 H         0.235155       12.179609       16.959274
 H         1.629462       12.375869       16.369345
 H         0.372389       11.974554       12.102590
 H         1.184691       10.645878       12.037162
 H         2.167939       12.349804       10.657479
 H         2.653464       13.677212       10.021672
 H         2.128713        8.362696       10.855547
 H         2.624670        7.143740       10.055255
 H         6.039246        8.366805       13.114370
 H         6.508602        7.158282       12.279694
 H         7.437158        8.416666       16.822090
 H         6.563688        7.134918       16.849976
 H         5.913330       12.447867       17.354050
 H         6.371918       13.746638       16.621674
 H         1.207320       10.057687       16.846603
 H         0.338581        8.782311       16.814516
