384
 generated by VMD
 O         9.030534        1.753709       12.335398
 O        12.990190        4.497616       10.062402
 O        14.228610        5.423429       12.320023
 O        12.970720        4.533674       14.587964
 O        10.386153        0.893306       14.546492
 O        10.363151        5.361155       14.622746
 O        12.967521        1.771086       10.066382
 O        12.994505        1.786327       14.562756
 O         9.044226        4.488579       16.842287
 O         9.037878        4.522736       12.360299
 O        10.383899        5.301990       10.078390
 O        10.354836        0.864858       10.082761
 O        14.240524        0.840438       12.310968
 O        14.299519        0.889900       16.810781
 O        14.295416        5.434072       16.815128
 O         9.088657        1.758161       16.837542
 O         9.094226        9.094178        3.337242
 O        12.959485       11.829487        1.111884
 O        14.251439       12.700827        3.360099
 O        12.922565       11.776983        5.568577
 O        10.377079        8.169758        5.564384
 O        10.343389       12.719420        5.635507
 O        12.962831        9.084946        1.118288
 O        12.969717        9.037684        5.544725
 O         9.117035       11.843045        7.949451
 O         9.086013       11.832554        3.347950
 O        10.362935       12.717258        1.080806
 O        10.369316        8.177887        1.106822
 O        14.271688        8.123981        3.320157
 O        14.305489        8.128311        7.747268
 O        14.220850       12.716714        7.776241
 O         9.075368        9.054545        7.817081
 O         1.315636        9.055589        3.339645
 O         5.228690       11.838625        1.053523
 O         6.502544       12.728899        3.309935
 O         5.204645       11.789430        5.542822
 O         2.614386        8.154200        5.557250
 O         2.628843       12.713596        5.558852
 O         5.229346        9.096841        1.064188
 O         5.200189        9.047363        5.522376
 O         1.275256       11.812205        7.762494
 O         1.319856       11.798282        3.325074
 O         2.641398       12.751726        1.113367
 O         2.655529        8.163030        1.140734
 O         6.521184        8.168209        3.285592
 O         6.463904        8.104000        7.745104
 O         6.506599       12.706916        7.795609
 O         1.314260        9.079516        7.761072
 O         1.327468        1.747917        3.348950
 O         5.203283        4.511773        1.109527
 O         6.509459        5.437279        3.325765
 O         5.189183        4.522711        5.543285
 O         2.610662        0.841764        5.589756
 O         2.603656        5.414464        5.568182
 O         5.212740        1.774662        1.110263
 O         5.181734        1.788467        5.568466
 O         1.282315        4.473289        7.780359
 O         1.303540        4.485647        3.347999
 O         2.610825        5.415531        1.120367
 O         2.628624        0.875270        1.100505
 O         6.501885        0.867033        3.352502
 O         6.474286        0.855945        7.795057
 O         6.514354        5.364653        7.788026
 O         1.298444        1.744099        7.819175
 O         9.088079        1.793195        3.337191
 O        12.970026        4.506135        1.077203
 O        14.258200        5.391960        3.322145
 O        12.949028        4.484227        5.555124
 O        10.374000        0.855796        5.568063
 O        10.375664        5.418154        5.593373
 O        12.990616        1.765719        1.104270
 O        12.964007        1.747287        5.570963
 O         9.096776        4.426374        7.820240
 O         9.094809        4.537930        3.339163
 O        10.390176        5.436450        1.097272
 O        10.406816        0.857734        1.107825
 O        14.275289        0.843410        3.344654
 O        14.242845        0.847744        7.818483
 O        14.239738        5.392106        7.787207
 O         9.080865        1.682940        7.830199
 O         1.284828        1.732414       12.317174
 O         5.167698        4.492559       10.017672
 O         6.446108        5.449082       12.257232
 O         5.193798        4.528652       14.525407
 O         2.612214        0.867578       14.547982
 O         2.581561        5.397048       14.538340
 O         5.165592        1.750048       10.047126
 O         5.201168        1.779214       14.560187
 O         1.333848        4.505636       16.814348
 O         1.268420        4.464945       12.305627
 O         2.553164        5.359059       10.050653
 O         2.573139        0.846261       10.075047
 O         6.445789        0.835714       12.306075
 O         6.487091        0.872548       16.804054
 O         6.472539        5.419860       16.789551
 O         1.342964        1.780218       16.795368
 O        10.182109        9.177589       12.428984
 O        13.005177       11.761554       10.056744
 O        14.218356       12.713440       12.323573
 O        13.022513       11.813638       14.662646
 O        10.592181        8.062367       14.768067
 O        10.500911       12.671431       14.521824
 O        13.072773        9.024035       10.018135
 O        13.129539        9.076317       14.687867
 O         9.118374       11.826104       16.697115
 O         9.666672       11.717472       12.370581
 O        10.462326       12.624544       10.179589
 O        10.496078        8.026025        9.898421
 O        14.282672        8.170761       12.334388
 O        14.365263        8.155474       16.904753
 O        14.298164       12.758670       16.855860
 O         9.104861        9.072824       16.801527
 O         1.313398        9.068761       12.316895
 O         5.046607       11.798971        9.948260
 O         6.227635       12.676337       12.229583
 O         5.081743       11.791924       14.586331
 O         2.504666        8.136654       14.591553
 O         2.546303       12.734183       14.574198
 O         4.988364        9.060081        9.879717
 O         5.068267        9.048769       14.592183
 O         1.326225       11.836143       16.843174
 O         1.294047       11.809365       12.300883
 O         2.507953       12.720644       10.028747
 O         2.453382        8.093845       10.017496
 O         6.157909        8.210458       12.175549
 O         6.508063        8.165457       16.768082
 O         6.513889       12.726073       16.737030
 O         1.358451        9.093977       16.886087
 H         9.465877        1.447992       11.534020
 H         8.129966        1.410850       12.308272
 H        12.072769        4.791596       10.090890
 H        13.409970        4.833546       10.861960
 H        13.776540        5.136080       13.120403
 H        14.248213        6.385735       12.343361
 H        12.975923        3.570957       14.580867
 H        12.044887        4.799053       14.599579
 H         9.899756        1.187080       13.766515
 H        10.396215       14.539197       14.517330
 H         9.879583        5.032781       15.389859
 H         9.877092        5.072175       13.842948
 H        12.965835        2.735594       10.065084
 H        12.047170        1.493063       10.073051
 H        12.085108        1.473876       14.542791
 H        13.415885        1.454545       13.762465
 H         9.022739        3.525852       16.852867
 H         8.129785        4.792861       16.828676
 H         8.129264        4.841032       12.324437
 H         8.995905        3.561824       12.355233
 H        10.382771        6.263183       10.032778
 H         9.907345        5.057736       10.878391
 H        10.377177       14.510837       10.086606
 H         9.897555        1.126239        9.272942
 H        13.814802        1.181107       11.517064
 H        15.152606        1.153622       12.295727
 H        15.205073        1.220687       16.787003
 H        13.863778        1.211692       16.015200
 H        13.828417        5.152469       16.021631
 H        14.306529        6.397503       16.813999
 H         9.572876        1.429652       17.603580
 H         9.555945        1.448404       16.057190
 H         9.544197        8.787246        4.132181
 H         9.103573       10.056958        3.365060
 H        12.053559       12.153096        1.078324
 H        13.409491       12.168648        0.330830
 H        14.252048       13.663898        3.342900
 H        13.792419       12.414783        2.563070
 H        12.949949       10.814247        5.541703
 H        13.390652       12.087887        4.785728
 H        10.386504        7.207007        5.579886
 H        11.298400        8.452147        5.559773
 H        11.253276       12.405691        5.605656
 H        10.382060       13.681465        5.608766
 H        12.047359        8.785712        1.105297
 H        12.940629       10.047559        1.116674
 H        13.450299        8.713310        6.314391
 H        13.435654        8.705114        4.769653
 H         9.537891       12.170823        7.147008
 H         8.201426       12.143388        7.912308
 H         8.177790       12.154716        3.360618
 H         9.507265       12.158237        4.150245
 H         9.896608       12.393023        0.305559
 H         9.894657       12.390332        1.856934
 H        10.366009        7.214950        1.121991
 H         9.920668        8.474419        1.906638
 H        14.252827        7.161159        3.291696
 H        13.806111        8.439068        2.538193
 H        13.901232        8.460066        8.555080
 H        15.209178        8.465782        7.743156
 H        13.788588       12.366956        8.560290
 H        13.739721       12.374792        7.013810
 H         9.527346        8.792872        7.007693
 H         9.085214       10.015140        7.848092
 H         0.415832        8.712601        3.350236
 H         1.749438        8.732484        4.137879
 H         4.326861       12.176142        1.046463
 H         5.656580       12.157426        0.251659
 H         6.057245       12.440658        2.505970
 H         6.487700       13.691794        3.306668
 H         5.221461       10.826349        5.524361
 H         5.662791       12.090809        4.751685
 H         3.520095        8.483515        5.559040
 H         2.189398        8.497965        6.351032
 H         3.531627       12.376125        5.542887
 H         2.194405       12.383116        4.765702
 H         4.317317        8.788932        1.093622
 H         5.200477       10.059432        1.059718
 H         5.668273        8.725191        4.744886
 H         5.669809        8.700412        6.289506
 H         0.371683       12.141528        7.724931
 H         1.732929       12.142381        6.981835
 H         1.297264       10.835307        3.330306
 H         0.404252       12.095222        3.338504
 H         2.177910       12.438272        1.897095
 H         2.621609       13.714822        1.139743
 H         2.636131        7.200061        1.147878
 H         2.184822        8.454059        1.930204
 H         6.090466        8.505700        2.492529
 H         7.421241        8.510937        3.283756
 H         6.513375        7.142382        7.767964
 H         7.367218        8.427673        7.801640
 H         6.061722       12.400942        6.998768
 H         6.475497       13.668918        7.776937
 H         1.718704        8.764122        8.577166
 H         1.315833       10.042440        7.790242
 H         1.805772        1.434443        2.574132
 H         1.792041        1.410849        4.122820
 H         5.682487        4.852237        1.873089
 H         5.656301        4.842145        0.326639
 H         7.425094        5.138185        3.330178
 H         6.533532        6.400639        3.311309
 H         5.671680        4.827336        6.319643
 H         5.663047        4.856094        4.773621
 H         2.616217       14.480423        5.604238
 H         2.145330        1.131431        6.381855
 H         2.623953        6.377710        5.566762
 H         3.521727        5.121972        5.565623
 H         5.223939        2.737890        1.132269
 H         5.666428        1.474649        1.905318
 H         4.269381        1.479777        5.572399
 H         5.153718        2.751367        5.551943
 H         0.380022        4.809260        7.754383
 H         1.731589        4.813835        6.999419
 H         1.323465        3.522832        3.371965
 H         1.765304        4.793943        4.135541
 H         2.172407        5.073168        1.906715
 H         3.515070        5.084455        1.139864
 H         3.533530        1.205437        1.080742
 H         2.194791        1.200715        0.304564
 H         6.060778        1.196084        4.143205
 H         7.404689        1.200737        3.372534
 H         6.005633        1.175056        8.573297
 H         6.006292        1.204505        7.028585
 H         7.413104        5.021736        7.826314
 H         6.061168        5.050387        8.577651
 H         0.382650        1.446940        7.817816
 H         1.275880        2.707285        7.797658
 H         9.100694        2.756019        3.312716
 H         9.547781        1.487841        2.548624
 H        13.447964        4.844155        0.311984
 H        13.437554        4.824004        1.857385
 H        13.814115        5.063489        4.111364
 H        15.161737        5.057975        3.352838
 H        13.405707        4.785009        6.348361
 H        12.964969        3.521230        5.575665
 H        11.279196        1.185058        5.552552
 H         9.941373        1.196462        4.777768
 H        11.276824        5.077116        5.601097
 H         9.942826        5.065922        6.378041
 H        12.987891        2.729003        1.080328
 H        13.456114        1.475226        0.312549
 H        13.444394        1.419536        4.802892
 H        13.425122        1.418959        6.350232
 H         9.099975        3.463605        7.828382
 H         9.546764        4.707871        8.623271
 H         9.571450        4.869421        2.570825
 H         9.560290        4.858533        4.119424
 H        11.292689        5.101669        1.062173
 H         9.933432        5.095392        0.321196
 H        10.414943       14.497252        1.110381
 H        11.325488        1.147980        1.110559
 H        13.841084        1.183317        2.554966
 H        15.181566        1.169516        3.323977
 H        13.785853        1.148398        8.610749
 H        14.221774       14.486980        7.830773
 H        13.797937        5.109022        8.594706
 H        14.249424        6.355488        7.795882
 H         9.514449        1.373397        7.027311
 H         8.167304        1.377082        7.796582
 H         1.756540        1.409166       11.540980
 H         1.769089        1.418535       13.088844
 H         5.144576        3.529734       10.031142
 H         4.251490        4.787623       10.027152
 H         6.392660        6.408412       12.217100
 H         6.002048        5.123584       11.466747
 H         4.285011        4.845798       14.508067
 H         5.617310        4.865061       13.728404
 H         2.622453       14.506055       14.557296
 H         3.529783        1.160104       14.548258
 H         2.131673        5.060353       15.320035
 H         2.106654        5.057896       13.772677
 H         4.263275        1.414010       10.072633
 H         5.599250        1.431236       10.845076
 H         5.210989        2.742407       14.558911
 H         5.659903        1.496254       15.358202
 H         1.770540        4.835769       17.607073
 H         0.430094        4.838548       16.834412
 H         1.245095        3.501849       12.311431
 H         0.355840        4.770705       12.310259
 H         2.089423        5.020754       10.823857
 H         2.086969        5.030263        9.275141
 H         2.123848        1.159072        9.282543
 H         2.545226       14.485271       10.040616
 H         6.389094       14.477896       12.302778
 H         6.002579        1.139061       13.106043
 H         6.054346        1.190820       17.603832
 H         7.395790        1.187226       16.837763
 H         6.020954        5.128404       15.990256
 H         6.476468        6.383103       16.764843
 H         1.796748        1.482288       15.999325
 H         1.354763        2.743945       16.782557
 H        10.352159        8.760889       13.299065
 H         9.793871       10.750391       12.393565
 H        13.044608       10.798089       10.065185
 H        13.448496       12.068747       10.856143
 H        14.214638       13.677732       12.335736
 H        13.806018       12.422816       13.141420
 H        13.070159       10.850620       14.691408
 H        13.493666       12.138186       15.441336
 H        10.491042        7.102603       14.743378
 H        10.036609        8.398228       15.483262
 H        11.418664       12.373378       14.643559
 H         9.990704       12.359985       15.287628
 H        12.188015        8.651786        9.964343
 H        13.467839        8.696017       10.833617
 H        13.611400        8.761354       15.463250
 H        12.250631        8.696152       14.769309
 H         9.087462       10.863098       16.724842
 H         8.202276       12.127633       16.689781
 H        10.015741       12.143261       13.226348
 H         9.987228       12.108936       11.487684
 H        11.376632       12.320261       10.062884
 H         9.955547       12.325212        9.406955
 H        10.185966        8.409426       10.709495
 H         9.963274        8.399922        9.184714
 H        15.192638        8.492243       12.330313
 H        13.888290        8.500237       13.147183
 H        13.893537        8.491067       17.674440
 H        15.266926        8.497215       16.947927
 H        15.213611       12.453863       16.863176
 H        14.325269       13.721956       16.842148
 H         8.197535        8.747655       16.792017
 H         9.509177        8.756762       17.617790
 H         1.332901       10.031777       12.323936
 H         1.750153        8.771803       13.122753
 H         5.566396       12.104028        9.197211
 H         5.058360       10.835572        9.919929
 H         7.043325       12.181559       12.245532
 H         5.780624       12.366446       11.428575
 H         5.097938       10.827485       14.582057
 H         5.473856       12.069886       13.753363
 H         2.506666        7.173581       14.598272
 H         2.077801        8.431281       15.402338
 H         3.443278       12.377098       14.566986
 H         2.118426       12.409850       13.775235
 H         5.473848        8.704363        9.129460
 H         4.093404        8.705483        9.852412
 H         5.430509        8.754327       13.752206
 H         4.161631        8.721735       14.609241
 H         1.810422       12.179765       17.602217
 H         1.771537       12.160868       16.052017
 H         0.388719       12.132437       12.289012
 H         1.714217       12.138377       11.497787
 H         2.069298       12.400417        9.233541
 H         3.413718       12.390053        9.983051
 H         2.059365        8.407532       10.837915
 H         2.464563        7.131232       10.054584
 H         5.699343        8.493277       11.371078
 H         6.940457        8.757193       12.187523
 H         6.020447        8.481716       15.999696
 H         6.041808        8.501255       17.540945
 H         6.488140       13.688477       16.729465
 H         6.026926       12.424896       15.962265
 H         1.840944        8.796968       17.666307
 H         1.375252       10.056974       16.887466
