384
 generated by VMD
 O         9.066443        1.840845       12.272179
 O        12.949430        4.520597       10.059645
 O        14.232681        5.390609       12.315932
 O        12.993031        4.458893       14.567011
 O        10.350164        0.845000       14.493740
 O        10.520152        5.529456       14.690605
 O        12.964763        1.772951       10.039701
 O        12.932189        1.735245       14.529824
 O         9.145955        4.457394       16.771378
 O         9.082293        4.611229       12.340234
 O        10.356450        5.433930       10.047846
 O        10.360376        0.914422       10.044066
 O        14.232139        0.832587       12.284411
 O        14.236239        0.862611       16.789274
 O        14.301301        5.409998       16.795330
 O         9.095460        1.719354       16.773809
 O         9.113619        9.045864        3.389852
 O        12.972451       11.819489        1.094014
 O        14.264718       12.717942        3.342408
 O        12.981665       11.794833        5.584016
 O        10.385860        8.133955        5.621253
 O        10.392062       12.706079        5.601068
 O        13.039008        9.070206        1.152158
 O        12.955839        9.058320        5.595365
 O         9.089235       11.810809        7.841493
 O         9.105504       11.796268        3.358411
 O        10.390715       12.732971        1.122086
 O        10.453842        8.153228        1.179201
 O        14.286192        8.145291        3.395321
 O        14.191147        8.125624        7.840149
 O        14.244600       12.717988        7.826811
 O         9.085617        9.065386        7.840304
 O         1.325399        9.070358        3.340424
 O         5.200188       11.830609        1.077870
 O         6.508425       12.687300        3.330648
 O         5.202842       11.844630        5.594770
 O         2.607218        8.176172        5.586043
 O         2.597543       12.718675        5.586369
 O         5.112412        9.111321        1.395384
 O         5.176333        9.103597        5.658557
 O         1.286139       11.788248        7.816876
 O         1.318397       11.806340        3.352666
 O         2.611194       12.725948        1.105206
 O         2.574580        8.114450        1.116211
 O         6.512879        8.139296        3.497446
 O         6.506125        8.142102        7.808417
 O         6.495312       12.738570        7.830660
 O         1.232760        9.049935        7.776902
 O         1.338800        1.789690        3.301179
 O         5.178534        4.377992        1.198717
 O         6.521595        5.393231        3.387460
 O         5.185813        4.492938        5.591099
 O         2.596620        0.852371        5.551669
 O         2.612094        5.441660        5.613759
 O         5.203478        1.656054        1.091354
 O         5.189372        1.753915        5.545412
 O         1.290915        4.515425        7.819725
 O         1.317084        4.524311        3.375279
 O         2.625557        5.369363        1.111066
 O         2.587396        0.848469        1.055935
 O         6.486281        0.812849        3.338861
 O         6.486627        0.872499        7.786696
 O         6.456090        5.409807        7.835845
 O         1.298720        1.767994        7.793478
 O         9.056269        1.760838        3.342120
 O        12.997577        4.513310        1.111667
 O        14.254502        5.407118        3.387460
 O        12.934315        4.468390        5.588008
 O        10.379251        0.847423        5.553610
 O        10.361395        5.391838        5.605237
 O        12.968056        1.771501        1.095549
 O        12.964679        1.735769        5.555243
 O         9.040778        4.507520        7.829710
 O         9.113902        4.486357        3.342939
 O        10.419210        5.395613        1.085032
 O        10.380888        0.880613        1.108230
 O        14.292516        0.856875        3.318149
 O        14.251603        0.855650        7.798184
 O        14.232719        5.395757        7.810308
 O         9.074936        1.778467        7.781936
 O         1.295104        1.752702       12.291634
 O         5.141385        4.470681       10.048093
 O         6.467330        5.416854       12.243001
 O         5.216373        4.510725       14.556196
 O         2.581233        0.849135       14.532917
 O         2.638576        5.444423       14.562522
 O         5.147583        1.747392       10.001386
 O         5.180062        1.762160       14.533585
 O         1.341302        4.512783       16.786291
 O         1.310655        4.501466       12.342965
 O         2.571872        5.417535       10.075239
 O         2.559813        0.834585       10.035359
 O         6.468752        0.955212       12.257834
 O         6.488869        0.833629       16.760012
 O         6.521117        5.231841       16.898569
 O         1.286094        1.768190       16.775324
 O         8.889231        9.131659       12.147039
 O        12.946865       11.808375       10.068221
 O        14.214476       12.687322       12.331542
 O        13.008049       11.709538       14.588109
 O        10.707088        8.037493       14.843866
 O        10.399719       12.713739       14.504895
 O        12.973377        9.067959       10.121716
 O        13.018716        9.020982       14.717200
 O         9.144693       11.859290       16.780706
 O         9.046531       11.898268       12.250297
 O        10.378596       12.774129       10.047761
 O        10.391273        8.166476       10.063867
 O        14.289608        8.143755       12.363440
 O        14.362896        8.143050       16.852425
 O        14.284879       12.715146       16.802145
 O         9.403863        8.991781       16.793247
 O         1.318833        9.064796       12.302856
 O         5.146233       11.852098       10.041556
 O         6.463021       12.832432       12.226490
 O         5.154125       11.887623       14.428804
 O         2.694811        8.194124       14.511411
 O         2.566834       12.716499       14.549084
 O         5.030575        9.133089        9.843300
 O         5.285059        9.142482       14.199869
 O         1.337643       11.776093       16.821436
 O         1.279712       11.794761       12.322891
 O         2.549386       12.694415       10.063083
 O         2.497651        8.161153       10.005807
 O         6.383975        8.154670       11.944591
 O         6.717745        7.874411       17.542192
 O         6.477688       12.691252       16.721754
 O         1.389288        9.041887       16.762117
 H         9.098316        2.801481       12.286285
 H         9.527681        1.553770       11.476502
 H        13.382168        4.840252        9.260309
 H        12.042628        4.844154       10.035043
 H        13.781275        5.105008       11.513610
 H        14.238325        6.352446       12.303560
 H        12.982185        3.494371       14.535877
 H        13.427494        4.759294       13.760309
 H        10.351705       14.484097       14.460554
 H         9.887366        1.158315       13.709853
 H        11.387397        5.098222       14.661142
 H        10.026940        5.141704       15.428844
 H        12.975269        2.735491       10.024415
 H        13.419765        1.474416        9.244730
 H        12.024526        1.412346       14.495507
 H        13.373621        1.403684       13.740413
 H         8.219398        4.723505       16.790100
 H         9.139622        3.493017       16.766003
 H         8.168998        4.924038       12.338482
 H         9.499280        4.969574       13.121809
 H        10.361110        6.397655       10.061565
 H         9.912019        5.157826       10.855647
 H        11.270898        1.226765       10.015642
 H         9.932088        1.225451        9.239221
 H        13.805758        1.168804       11.488672
 H        15.137424        1.160577       12.270582
 H        13.755267        1.173146       16.015507
 H        13.768640        1.195337       17.563063
 H        15.206935        5.078184       16.780640
 H        13.869644        5.062003       16.008883
 H         8.185765        1.403145       16.750931
 H         9.519891        1.389647       15.974590
 H         8.205609        8.726647        3.429799
 H         9.549990        8.717188        4.184060
 H        12.053638       12.109273        1.103184
 H        12.966765       10.857495        1.112743
 H        14.271380       13.681105        3.323224
 H        13.807235       12.430233        2.545564
 H        13.429595       12.099742        4.787809
 H        12.989670       10.832006        5.561882
 H        10.365705        7.171122        5.637256
 H         9.922378        8.439281        6.409303
 H         9.956921       12.384174        6.398000
 H        11.295589       12.373426        5.619149
 H        13.519306        8.736506        0.389142
 H        13.501834        8.744597        1.933038
 H        13.375275        8.730109        6.398449
 H        12.049472        8.731220        5.611749
 H         9.521610       12.161753        8.628266
 H         8.184968       12.141393        7.853697
 H         9.555537       12.099911        4.154343
 H         9.122002       10.834178        3.384951
 H        10.377793       13.695608        1.142238
 H         9.931102       12.430047        1.912450
 H        11.359545        8.480903        1.210440
 H        10.000099        8.480607        1.965030
 H        14.261173        7.182336        3.415171
 H        13.814253        8.449811        4.178884
 H        14.186475        7.162282        7.855747
 H        13.764239        8.426651        8.648440
 H        15.147385       12.381671        7.812328
 H        13.817307       12.387334        7.029067
 H         9.555385        8.770715        8.628261
 H         9.098378       10.028474        7.856512
 H         1.737958        8.721924        2.542570
 H         0.424093        8.731162        3.354215
 H         4.301474       12.176877        1.066532
 H         5.622808       12.119226        0.262849
 H         7.412912       12.357180        3.320589
 H         6.082968       12.372580        2.526015
 H         4.295849       12.166842        5.568089
 H         5.635713       12.148158        4.790103
 H         3.505681        8.524377        5.603176
 H         2.194577        8.501182        4.778551
 H         2.133939       12.379282        6.359099
 H         2.129076       12.382196        4.814369
 H         5.116612       10.065247        1.265939
 H         4.206184        8.802819        1.298633
 H         5.653951        8.798118        6.438559
 H         5.204725       10.065967        5.664279
 H         1.282774       10.825459        7.828769
 H         1.737075       12.077538        8.617702
 H         1.300937       10.843092        3.342011
 H         0.401775       12.101589        3.342836
 H         2.158910       12.427302        1.900951
 H         2.582343       13.689321        1.110767
 H         2.596941        7.151829        1.091902
 H         2.166919        8.409222        0.295705
 H         6.065496        8.465313        4.286734
 H         6.002987        8.496440        2.762864
 H         6.019146        8.509191        8.554886
 H         7.407896        8.476739        7.856813
 H         6.042381       12.439923        7.034602
 H         6.488693       13.701315        7.800210
 H         1.683847        8.728667        6.988213
 H         0.330268        8.715523        7.753597
 H         1.784492        1.472220        4.093941
 H         1.347127        2.751952        3.347574
 H         5.201510        3.415296        1.217749
 H         5.651069        4.697862        1.973013
 H         6.529286        6.356010        3.415782
 H         7.440773        5.108139        3.371827
 H         5.188025        3.530001        5.565063
 H         5.662385        4.788045        4.807391
 H         2.577514       14.491555        5.580551
 H         2.139466        1.160350        6.341261
 H         3.523638        5.130624        5.598515
 H         2.643522        6.404566        5.602249
 H         4.289783        1.353755        1.050783
 H         5.635199        1.359223        0.282585
 H         5.622789        1.410978        4.755727
 H         4.285567        1.421661        5.532805
 H         1.747583        4.839480        8.603326
 H         1.774360        4.855375        7.058479
 H         1.754094        4.862265        4.164210
 H         0.408361        4.841712        3.402499
 H         3.519669        5.012851        1.153459
 H         2.173047        5.065033        1.904601
 H         2.138413        1.203326        1.830951
 H         2.114486        1.178974        0.284434
 H         6.035259        1.088039        2.532606
 H         6.495335       14.451224        3.327569
 H         7.390802        1.203911        7.770681
 H         6.054914        1.196822        6.988839
 H         6.006239        5.109281        7.038802
 H         6.456627        6.372830        7.811615
 H         1.748635        1.464827        8.589703
 H         1.309965        2.730612        7.817640
 H         8.154652        1.422037        3.364685
 H         9.503829        1.423729        4.126078
 H        12.093206        4.844654        1.080422
 H        13.438731        4.837048        0.320382
 H        13.799977        5.085647        2.602140
 H        13.773417        5.061110        4.147418
 H        12.018737        4.768571        5.600297
 H        12.914799        3.505175        5.578541
 H        10.399666       14.486742        5.574055
 H        11.297287        1.139959        5.549820
 H         9.873127        5.070230        6.371002
 H         9.903355        5.067454        4.822380
 H        12.952964        2.734373        1.103700
 H        12.049853        1.479502        1.108470
 H        13.434807        1.411440        6.331576
 H        13.448818        1.421999        4.784119
 H         8.134467        4.833931        7.854798
 H         9.479912        4.839679        8.620173
 H         9.103354        3.522792        3.322948
 H         9.572539        4.777397        2.549316
 H         9.957800        5.102965        0.292465
 H        10.403267        6.357228        1.089757
 H         9.893692        1.206678        1.872347
 H         9.911220        1.181936        0.323408
 H        15.193748        1.195418        3.290119
 H        13.846159        1.187500        2.531512
 H        14.272982       14.494582        7.811825
 H        15.167317        1.155234        7.796981
 H        13.799089        5.054208        7.020607
 H        15.142298        5.078022        7.792294
 H         9.077970        2.741774        7.769687
 H         9.538980        1.481689        6.992213
 H         1.747478        1.444871       13.084928
 H         1.314231        2.714581       12.323994
 H         5.602214        4.786936        9.263635
 H         5.148310        3.508107       10.004395
 H         5.991534        5.030881       11.499642
 H         6.020016        5.127573       13.043413
 H         5.213570        3.547841       14.563007
 H         5.681026        4.785331       15.351401
 H         2.129007        1.155315       15.325770
 H         2.565102       14.488234       14.562099
 H         3.550674        5.131958       14.555556
 H         2.680701        6.406050       14.542188
 H         5.590550        1.417332        9.212234
 H         4.248608        1.402533        9.991601
 H         4.276602        1.431417       14.511238
 H         5.609271        1.465276       13.724069
 H         1.811664        4.816594       17.570108
 H         1.818959        4.855420       16.022396
 H         1.749521        4.844776       13.128413
 H         0.403634        4.820918       12.362682
 H         2.145913        5.093307       10.875169
 H         3.474255        5.079448       10.085553
 H         2.118649        1.142748       10.834262
 H         2.535642       14.474151       10.060957
 H         6.030257        1.261869       11.456979
 H         7.369256        1.294930       12.238200
 H         6.029769        1.141751       15.971015
 H         6.478518       14.472920       16.724283
 H         6.575125        6.172218       17.059940
 H         6.057121        4.881904       17.666290
 H         1.281575        2.730852       16.770714
 H         0.366585        1.481734       16.773987
 H         9.115507        8.860137       13.032475
 H         7.982893        8.809310       12.034653
 H        13.387177       12.133209        9.275327
 H        12.046970       12.152227       10.045944
 H        13.766267       12.390480       11.531726
 H        14.204833       13.650112       12.304700
 H        13.448110       12.051632       13.801126
 H        13.465629       12.087003       15.347886
 H        10.647840        7.029967       14.798136
 H        11.641685        8.412117       14.803877
 H         9.959727       12.412077       15.307516
 H        11.293810       12.364957       14.540982
 H        12.980666       10.031434       10.120580
 H        13.436420        8.782876       10.914532
 H        13.541427        8.751586       15.489612
 H        13.016256        9.991326       14.684060
 H         9.211048       10.905386       16.774908
 H         9.575552       12.156763       17.590174
 H         9.509314       12.132873       13.061000
 H         8.979990       10.938922       12.238245
 H         9.912847       12.479747       10.839192
 H        10.363926       13.736873       10.062106
 H         9.920029        8.502388       10.833259
 H        11.293891        8.497865       10.116329
 H        13.884351        8.454554       13.173225
 H        15.198324        8.469916       12.364741
 H        15.284741        8.429568       16.822954
 H        14.365485        7.178842       16.832251
 H        13.816783       12.420928       17.590982
 H        14.262735       13.677892       16.813145
 H         9.718610        8.685224       17.660822
 H        10.185172        8.408898       15.617024
 H         1.318796       10.028476       12.287333
 H         1.737692        8.770683       11.486223
 H         5.622347       12.184985       10.810821
 H         5.620664       12.178303        9.268901
 H         7.376508       12.529623       12.249372
 H         6.489800       13.795667       12.227836
 H         5.616048       12.244611       13.661579
 H         5.191870       10.931925       14.325378
 H         2.239331        8.508096       13.722939
 H         3.601232        8.508515       14.445126
 H         2.171310       12.372047       15.355980
 H         3.481011       12.407711       14.527326
 H         4.115460        8.834009        9.880925
 H         5.035617       10.092633        9.929766
 H         5.627275        8.817463       13.354583
 H         6.003712        8.959304       14.801785
 H         0.435726       12.112388       16.835733
 H         1.769398       12.114964       17.613424
 H         0.373846       12.120232       12.338691
 H         1.710723       12.126951       13.118685
 H         3.465075       12.394275       10.082301
 H         2.127912       12.368364       10.865070
 H         2.023012        8.428083        9.210173
 H         2.521837        7.198408       10.013064
 H         5.886094        8.413439       11.161062
 H         6.387819        7.194660       12.014399
 H         8.499168        8.705720       16.696880
 H         6.176034        8.286138       18.230099
 H         7.382066       12.367111       16.706350
 H         6.053960       12.370688       15.918764
 H         1.385366       10.005672       16.769318
 H         1.864043        8.771404       15.968284
