384
 generated by VMD
 O         9.052345        1.769420       12.260823
 O        12.953021        4.490417       10.022801
 O        14.234450        5.431420       12.230753
 O        12.761687        4.520051       14.378729
 O        10.286985        0.827884       14.512404
 O        10.216650        5.424551       14.499314
 O        12.985591        1.756577       10.038679
 O        12.836261        1.757264       14.469644
 O         9.045678        4.474688       16.788252
 O         9.047443        4.494466       12.234199
 O        10.379300        5.428925       10.040224
 O        10.403283        0.850149       10.064720
 O        14.257027        0.851604       12.300344
 O        14.088922        0.870640       16.817411
 O        13.897714        5.509303       16.700989
 O         9.078972        1.722947       16.793467
 O         9.106992        9.070140        3.333456
 O        12.975833       11.819985        1.097003
 O        14.277870       12.716705        3.336507
 O        12.988758       11.830784        5.592967
 O        10.392802        8.156647        5.580958
 O        10.396537       12.698657        5.592261
 O        12.980319        9.077541        1.128589
 O        12.965780        9.083341        5.603891
 O         9.084789       11.779501        7.819846
 O         9.095539       11.802254        3.350815
 O        10.375012       12.708169        1.091905
 O        10.383367        8.160022        1.086316
 O        14.277740        8.155116        3.376981
 O        14.270141        8.159816        7.827804
 O        14.290133       12.720305        7.828518
 O         9.090425        9.037388        7.831413
 O         1.314402        9.086786        3.374833
 O         5.199903       11.784650        1.123575
 O         6.514569       12.715062        3.338946
 O         5.208094       11.806852        5.579265
 O         2.637115        8.145291        5.582951
 O         2.618657       12.712537        5.572215
 O         5.238053        9.066165        1.132794
 O         5.221255        9.058889        5.587661
 O         1.334675       11.807006        7.824819
 O         1.335464       11.809159        3.320577
 O         2.650481       12.701580        1.053075
 O         2.629264        8.207774        1.141925
 O         6.529533        8.135835        3.360442
 O         6.499932        8.157720        7.827216
 O         6.514418       12.717590        7.811110
 O         1.318113        9.067715        7.802784
 O         1.313138        1.726166        3.309456
 O         5.323994        4.473982        1.165653
 O         6.554945        5.399004        3.418582
 O         5.179198        4.488231        5.575027
 O         2.620492        0.848462        5.588941
 O         2.609121        5.401798        5.600969
 O         5.236855        1.734886        1.175224
 O         5.213524        1.749265        5.612994
 O         1.306170        4.506868        7.826003
 O         1.294598        4.504982        3.377878
 O         2.794308        5.495407        1.316925
 O         2.750804        0.760934        0.975178
 O         6.523254        0.860487        3.381471
 O         6.518679        0.856448        7.844274
 O         6.504970        5.419243        7.780039
 O         1.356899        1.773985        7.857533
 O         9.097058        1.750466        3.375584
 O        12.864659        4.529612        1.139024
 O        14.245970        5.401008        3.352678
 O        12.959451        4.484613        5.594061
 O        10.392502        0.845605        5.609765
 O        10.385561        5.416554        5.590418
 O        12.902111        1.777364        1.153904
 O        12.980142        1.750471        5.603262
 O         9.086659        4.511754        7.814723
 O         9.105639        4.487799        3.363008
 O        10.292859        5.434620        1.101893
 O        10.336029        0.844060        1.115689
 O        14.271448        0.853904        3.340905
 O        14.306394        0.853808        7.810228
 O        14.260392        5.419982        7.813621
 O         9.096164        1.776769        7.845105
 O         1.314006        1.744902       12.419882
 O         5.206473        4.488902       10.006296
 O         6.497469        5.426478       12.223369
 O         5.234913        4.554335       14.466983
 O         2.573695        0.835341       14.630679
 O         2.632195        5.474400       14.373714
 O         5.207866        1.744039       10.082537
 O         5.224793        1.831202       14.581516
 O         2.336022        4.274411       16.961040
 O         1.283853        4.488475       12.232045
 O         2.624672        5.439609       10.024361
 O         2.603782        0.854277       10.127301
 O         6.495463        0.860396       12.333635
 O         6.474733        0.835724       16.817734
 O         6.479538        5.384394       16.797050
 O         1.839156        1.745112       16.840597
 O         9.061620        9.075909       12.300094
 O        12.972075       11.839940       10.057511
 O        14.261441       12.717526       12.311154
 O        12.939769       11.796817       14.525530
 O        10.320713        8.160057       14.548153
 O        10.342205       12.701195       14.542285
 O        12.960579        9.100968       10.047182
 O        12.911469        9.060588       14.524843
 O         9.067484       11.798919       16.804155
 O         9.055444       11.810022       12.297696
 O        10.368490       12.712582       10.065567
 O        10.388984        8.161971       10.076839
 O        14.239751        8.178987       12.290461
 O        14.216851        8.217674       16.785679
 O        14.251843       12.704245       16.761206
 O         9.053734        9.066652       16.810940
 O         1.288905        9.091534       12.272341
 O         5.218439       11.820115       10.049373
 O         6.474242       12.730599       12.311520
 O         5.173173       11.802397       14.552870
 O         2.593720        8.211241       14.511475
 O         2.607982       12.756860       14.504928
 O         5.191139        9.080396       10.050182
 O         5.206923        9.067177       14.548430
 O         1.322640       11.835222       16.773666
 O         1.331725       11.816165       12.289639
 O         2.636171       12.717324       10.048408
 O         2.609160        8.179586       10.047568
 O         6.474281        8.161140       12.291758
 O         6.468382        8.136361       16.813175
 O         6.464828       12.691743       16.804598
 O         1.316348        9.067798       16.808287
 H         9.068241        2.733097       12.233232
 H         9.533198        1.460650       11.485217
 H        13.393756        4.834858       10.808629
 H        12.050264        4.825273       10.045720
 H        13.747244        5.121331       13.001297
 H        14.228598        6.393616       12.272027
 H        13.155326        4.851683       15.190278
 H        12.812221        3.559716       14.427912
 H        11.192948        1.157991       14.479038
 H         9.850943        1.164605       13.722287
 H        11.128463        5.111391       14.451126
 H        10.258572        6.386773       14.519034
 H        13.451776        1.466839        9.247918
 H        12.981791        2.720170       10.022394
 H        13.277607        1.464442       15.269781
 H        13.358467        1.429458       13.729082
 H         9.478328        4.789034       15.986120
 H         9.078825        3.512895       16.765326
 H         9.472642        4.841598       13.027907
 H         9.539074        4.837991       11.479995
 H        10.373023        6.392113       10.032078
 H         9.916568        5.138107        9.246946
 H        11.322616        1.138643       10.060169
 H        10.410643       14.489131       10.063963
 H        13.817216        1.151025       11.497622
 H        14.244229       14.490869       12.283234
 H        14.914462        1.340603       16.769125
 H        13.658940        1.199234       17.619801
 H        14.057553        6.463519       16.718353
 H        14.747925        5.096680       16.578093
 H         9.497339        1.397279       15.988148
 H         8.173381        1.399253       16.782946
 H         8.205542        8.731718        3.323866
 H         9.537983        8.742820        2.536283
 H        12.068791       12.143426        1.075317
 H        13.401728       12.133104        0.292675
 H        15.182128       12.388018        3.307299
 H        13.837119       12.388995        2.545099
 H        13.462116       12.161637        6.364029
 H        13.457982       12.151636        4.815962
 H         9.961003        8.487537        4.786422
 H        11.294365        8.496317        5.569691
 H        11.317172       12.414334        5.594490
 H        10.407880       13.661432        5.602722
 H        12.985451       10.040168        1.147601
 H        13.438563        8.777540        1.920004
 H        12.986628       10.045853        5.620173
 H        13.426043        8.781430        6.394655
 H         9.095703       10.816415        7.803046
 H         9.554153       12.076178        7.032838
 H         9.559258       12.097143        4.141845
 H         9.105742       10.838872        3.365183
 H         9.913851       12.377934        1.870078
 H         9.899534       12.373311        0.323811
 H        10.390805        7.196446        1.088708
 H        11.300913        8.451034        1.096257
 H        14.250849        7.192480        3.384064
 H        13.810929        8.453538        4.164693
 H        15.188039        8.451033        7.816869
 H        14.282429        7.196495        7.825281
 H        13.842718       12.402563        8.620373
 H        15.189835       12.377441        7.855537
 H         9.567130        8.718921        8.605705
 H         9.558401        8.707453        7.057002
 H         0.412465        8.746456        3.392958
 H         1.756476        8.747592        4.160657
 H         5.235758       10.820967        1.146089
 H         5.664545       12.097842        1.907746
 H         7.430214       12.413695        3.342786
 H         6.540145       13.677255        3.349838
 H         5.684655       12.134226        4.809335
 H         5.675420       12.140931        6.352861
 H         2.653600        7.182457        5.587987
 H         3.553538        8.441700        5.583950
 H         3.523748       12.383087        5.552308
 H         2.184930       12.381831        4.778602
 H         5.682224        8.727978        0.347495
 H         5.710663        8.717681        1.896705
 H         5.678970        8.770573        6.385335
 H         5.225049       10.021746        5.601167
 H         1.812236       12.138177        8.593523
 H         1.794650       12.139900        7.047357
 H         1.792293       12.092294        2.524010
 H         1.336253       10.844788        3.318389
 H         2.205159       12.376306        0.261507
 H         3.544771       12.336704        1.053357
 H         2.185103        8.541052        1.929347
 H         3.534321        8.535836        1.165773
 H         6.523925        7.173548        3.401929
 H         6.069951        8.448132        4.147439
 H         7.409728        8.473632        7.855899
 H         6.060556        8.488977        8.617892
 H         6.546951       13.680063        7.822299
 H         7.426458       12.406316        7.809684
 H         1.333333       10.030514        7.784662
 H         1.788160        8.766104        7.018206
 H         1.734815        1.397700        2.518423
 H         0.401719        1.405676        3.291510
 H         4.453104        4.874700        1.237660
 H         5.715211        4.800917        0.346809
 H         6.126977        5.062476        2.624918
 H         6.051098        5.063119        4.169205
 H         5.166538        3.525439        5.598417
 H         4.261127        4.781907        5.584649
 H         2.604707       14.487201        5.570430
 H         2.164415        1.142553        4.795504
 H         2.123957        5.077152        4.835145
 H         2.136189        5.086594        6.379676
 H         5.709941        1.438650        1.964589
 H         5.260106        2.698384        1.188030
 H         5.646727        1.425992        6.410837
 H         4.312051        1.411054        5.624003
 H         1.749744        4.853223        8.608443
 H         0.399958        4.833765        7.846564
 H         0.376313        4.800052        3.349885
 H         1.276907        3.544777        3.343874
 H         2.249774        5.179757        2.047444
 H         2.707440        6.456141        1.276516
 H         2.742530       14.390904        1.016703
 H         3.665584        1.065265        1.094145
 H         6.085380        1.180171        4.178266
 H         7.430545        1.187063        3.406256
 H         7.419455        1.198570        7.864395
 H         6.081577        1.171631        8.642486
 H         6.035086        5.126858        6.992275
 H         6.486921        6.382356        7.779932
 H         1.349566        2.737298        7.829881
 H         1.809496        1.475851        7.062754
 H         9.546313        1.416483        2.591002
 H         9.578452        1.419527        4.141801
 H        11.954416        4.846844        1.135391
 H        13.251012        4.859837        0.323121
 H        13.777836        5.064201        4.124398
 H        13.759201        5.094268        2.579723
 H        12.939714        3.521534        5.600512
 H        12.044699        4.786249        5.596140
 H         9.954762        1.182879        6.398633
 H        11.298264        1.172690        5.633282
 H        10.386593        6.379473        5.562777
 H         9.940329        5.114481        4.791113
 H        11.985599        1.478881        1.151472
 H        12.881155        2.740888        1.142186
 H        13.442744        1.427488        4.823447
 H        13.467301        1.424753        6.368645
 H         9.525746        4.838280        7.021296
 H         8.181090        4.838468        7.782705
 H         9.091361        3.524831        3.370291
 H         8.188350        4.781728        3.403910
 H         9.841869        5.086234        0.326201
 H         9.837722        5.090691        1.878459
 H        10.342183       14.483130        1.086888
 H         9.893951        1.140049        0.312321
 H        14.254202       14.493100        3.314680
 H        13.787611        1.163028        2.566482
 H        14.326983       14.492853        7.824642
 H        15.221210        1.153639        7.829073
 H        13.782657        5.086380        8.581643
 H        13.797790        5.085487        7.037519
 H         9.108153        2.740116        7.859267
 H         9.561730        1.476787        8.633516
 H         1.290573        2.707816       12.377154
 H         0.395122        1.452379       12.390637
 H         5.217113        3.526263       10.006462
 H         5.667531        4.779368        9.212272
 H         7.401361        5.090561       12.196813
 H         6.053751        5.085841       11.438919
 H         5.693665        4.863219       13.675946
 H         4.339392        4.898973       14.403410
 H         2.085720        1.175219       13.861968
 H         2.581626       14.468334       14.559439
 H         2.119405        5.118574       13.635653
 H         2.277527        5.089162       15.164832
 H         4.300652        1.424019       10.113713
 H         5.640286        1.428766       10.883349
 H         5.199215        2.795693       14.537691
 H         4.318266        1.526477       14.549059
 H         2.528467        4.720142       17.809521
 H         2.001517        2.709311       16.880526
 H         0.380502        4.823792       12.221900
 H         1.719220        4.818937       11.439536
 H         3.535469        5.127984       10.020123
 H         2.654424        6.402101       10.039011
 H         2.133851        1.172754       10.903757
 H         2.141307        1.196338        9.354844
 H         6.084518        1.214584       13.126924
 H         7.403059        1.187976       12.319068
 H         6.039126        1.173195       17.605469
 H         6.015287        1.208713       16.058893
 H         7.385424        5.053118       16.771866
 H         6.055038        5.081541       15.988481
 H         2.131083        1.357376       15.946528
 H         2.233777        1.287972       17.670500
 H         8.148091        8.770934       12.291330
 H         9.032918       10.038892       12.296961
 H        12.063487       12.158257       10.079767
 H        13.402150       12.157897       10.858604
 H        15.166452       12.390928       12.326578
 H        13.823452       12.380070       13.100228
 H        12.904784       10.833596       14.523557
 H        12.027219       12.104495       14.528425
 H         9.859552        8.503911       13.775334
 H         9.858742        8.493649       15.323906
 H        10.318492       13.664829       14.549976
 H         9.895310       12.405411       15.341996
 H        13.423390        8.789556        9.262190
 H        12.977082       10.063358       10.020874
 H        13.352612        8.753942       15.323919
 H        12.010699        8.721002       14.554611
 H         8.151564       12.093808       16.803675
 H         9.045954       10.835473       16.801577
 H         8.154408       12.148680       12.324703
 H         9.493011       12.128089       13.095426
 H         9.893371       12.385344       10.836875
 H         9.909036       12.372902        9.290565
 H         9.945065        8.491281       10.865477
 H        11.289330        8.503771       10.094903
 H        13.775434        8.516746       11.517424
 H        13.759756        8.494387       13.063424
 H        13.808357        8.534841       17.598793
 H        15.133928        8.507854       16.805586
 H        14.205226       13.664186       16.755878
 H        13.786552       12.399956       15.973745
 H         8.155042        8.723619       16.841427
 H         9.507976        8.738885       17.594734
 H         1.726914        8.773458       13.069213
 H         0.384188        8.760613       12.301977
 H         5.695467       12.144572        9.277846
 H         5.680636       12.151038       10.826677
 H         6.015117       12.422759       13.099518
 H         6.465746       13.693457       12.342643
 H         5.196543       10.838701       14.560312
 H         5.628929       12.094254       15.349336
 H         2.576271        7.249407       14.490001
 H         2.141514        8.479357       15.317723
 H         2.173899       12.413553       13.713562
 H         3.506953       12.407160       14.502259
 H         4.272353        8.790343       10.047156
 H         5.177980       10.043305       10.050712
 H         5.637053        8.736771       13.751891
 H         4.296184        8.755382       14.519482
 H         0.411695       12.149919       16.755365
 H         1.741448       12.153332       15.968369
 H         1.786016       12.109309       11.492662
 H         1.323267       10.852056       12.265343
 H         2.645680       13.679857       10.076156
 H         3.555378       12.428420       10.050750
 H         2.126899        8.499478       10.817532
 H         2.139526        8.500394        9.270045
 H         6.479262        7.198364       12.251376
 H         6.019756        8.466493       11.499499
 H         6.022746        8.440405       16.015265
 H         6.460951        7.174068       16.783939
 H         6.019952       12.395399       17.605202
 H         6.456861       13.653957       16.822262
 H         1.331574       10.029189       16.816755
 H         1.775772        8.777811       17.602226
