384
 generated by VMD
 O         8.811710        1.644804       12.842714
 O        13.021282        4.541728       10.063684
 O        14.299441        5.441456       12.328865
 O        13.001773        4.512074       14.554487
 O        10.406402        0.789554       14.792252
 O        10.419414        5.438764       14.579972
 O        13.050284        1.790537       10.030878
 O        12.952825        1.769908       14.569325
 O         9.106653        4.526814       16.827806
 O         9.114642        4.630595       12.264502
 O        10.438788        5.477827        9.972519
 O        10.419670        0.911596        9.851616
 O        14.266935        0.846748       12.312819
 O        14.222359        0.829113       16.817926
 O        14.293771        5.406733       16.812006
 O         9.070586        1.796798       16.937410
 O         9.058456        9.085176        3.313271
 O        12.968800       11.811228        1.103463
 O        14.287770       12.683808        3.343911
 O        12.987388       11.827663        5.596708
 O        10.409829        8.179069        5.523982
 O        10.390615       12.727201        5.577926
 O        12.945446        9.076288        1.076929
 O        12.996758        9.092334        5.537830
 O         9.075263       11.806994        7.806810
 O         9.077945       11.822398        3.349537
 O        10.389606       12.715105        1.117555
 O        10.369557        8.169754        1.098413
 O        14.256825        8.159194        3.294820
 O        14.274854        8.156894        7.779587
 O        14.263234       12.747224        7.836894
 O         9.090127        9.072485        7.764214
 O         1.321604        9.021092        3.312630
 O         5.194912       11.810445        1.092789
 O         6.483095       12.713459        3.347244
 O         5.176725       11.789633        5.562809
 O         2.608842        8.150383        5.566272
 O         2.597356       12.695208        5.564671
 O         5.185431        9.059344        1.081432
 O         5.190133        9.059713        5.577533
 O         1.297798       11.801184        7.810960
 O         1.336764       11.756104        3.320025
 O         2.607732       12.699217        1.064269
 O         2.611973        8.106056        1.086916
 O         6.466933        8.159946        3.334553
 O         6.503404        8.143968        7.808237
 O         6.481172       12.708163        7.766055
 O         1.340137        9.055794        7.821359
 O         1.333072        1.762685        3.373378
 O         5.211327        4.512383        1.109958
 O         6.478573        5.421209        3.360620
 O         5.199895        4.486300        5.599915
 O         2.642965        0.835439        5.594014
 O         2.617447        5.405985        5.567542
 O         5.159855        1.771274        1.149277
 O         5.214798        1.742568        5.618177
 O         1.336772        4.499372        7.812585
 O         1.326220        4.495898        3.325200
 O         2.616312        5.371308        1.067737
 O         2.578578        0.835041        1.128951
 O         6.480366        0.851308        3.369951
 O         6.530334        0.836633        7.873371
 O         6.488958        5.375681        7.855507
 O         1.364708        1.755360        7.811440
 O         9.048865        1.800705        3.346243
 O        12.992714        4.499337        1.105919
 O        14.284187        5.422721        3.339426
 O        12.980968        4.517904        5.570626
 O        10.419517        0.860373        5.498065
 O        10.401306        5.447185        5.523396
 O        12.960386        1.751891        1.119249
 O        12.998899        1.767465        5.525067
 O         9.094584        4.527330        7.743649
 O         9.070118        4.528118        3.326043
 O        10.407997        5.435750        1.102910
 O        10.379801        0.846622        1.178488
 O        14.299549        0.817283        3.316153
 O        14.302157        0.882848        7.776949
 O        14.284966        5.416247        7.804165
 O         9.093071        1.775993        7.673342
 O         1.339993        1.784546       12.311688
 O         5.230774        4.362522       10.088499
 O         6.493230        5.440811       12.320891
 O         5.220512        4.550997       14.598596
 O         2.541464        0.849139       14.604284
 O         2.626198        5.452379       14.573191
 O         5.432813        1.655369       10.187352
 O         5.060194        1.768838       14.651652
 O         1.326761        4.462931       16.767906
 O         1.354066        4.522790       12.322254
 O         2.658510        5.358529       10.061729
 O         2.643250        0.858512       10.110363
 O         6.494577        0.671217       12.189576
 O         6.473127        0.859672       16.866705
 O         6.520589        5.445019       16.835649
 O         1.266475        1.712543       16.831099
 O         9.055173        9.064951       12.280231
 O        12.962994       11.831857       10.082186
 O        14.271495       12.702929       12.322073
 O        12.998470       11.762769       14.566568
 O        10.383366        8.175065       14.540967
 O        10.409220       12.651333       14.562202
 O        12.986986        9.096062       10.021522
 O        12.984663        9.033843       14.554589
 O         9.095802       11.801015       16.813059
 O         9.026952       11.860595       12.315772
 O        10.344747       12.719492       10.056277
 O        10.392809        8.202281       10.010867
 O        14.276291        8.189885       12.283401
 O        14.260484        8.147780       16.816631
 O        14.279677       12.683192       16.812738
 O         9.079923        9.063173       16.791414
 O         1.345849        9.071136       12.290465
 O         5.138192       11.807246       10.002217
 O         6.510680       12.805881       12.314887
 O         5.219412       11.855433       14.459097
 O         2.603170        8.187897       14.563169
 O         2.623129       12.713895       14.535674
 O         5.187817        9.051663       10.013048
 O         5.172266        9.125577       14.540516
 O         1.332361       11.785933       16.754963
 O         1.315248       11.803164       12.308524
 O         2.579509       12.711941       10.070970
 O         2.622771        8.107469       10.057602
 O         6.453033        8.187722       12.287140
 O         6.484001        8.188862       16.777128
 O         6.508741       12.715672       16.779713
 O         1.306371        9.048997       16.812330
 H         9.377026        1.322356       13.574904
 H         7.380918        1.026771       12.398764
 H        13.030823        3.579457       10.081578
 H        13.466574        4.837747       10.864556
 H        15.216819        5.148969       12.319689
 H        14.314108        6.404020       12.307072
 H        13.473884        4.851192       13.785915
 H        13.469448        4.835372       15.331450
 H        11.293756        1.162183       14.722407
 H        10.006572        1.131242       15.600952
 H         9.986392        5.131361       13.779443
 H        11.325205        5.110530       14.547508
 H        12.146375        1.468771        9.992490
 H        13.443561        1.433032       10.834398
 H        13.402498        1.459226       13.776751
 H        12.977509        2.732965       14.537920
 H         9.577617        4.845639       16.051167
 H         9.580645        4.863656       17.596947
 H         9.078716        3.683363       12.223389
 H         8.193162        4.922874       12.273564
 H        11.340009        5.140149       10.020860
 H         9.990283        5.167002       10.762772
 H         9.972659        1.209613        9.043656
 H         9.957719        1.359135       10.548580
 H        15.178631        1.152823       12.312100
 H        14.295779       14.485940       12.316456
 H        13.750125        1.164484       17.588242
 H        13.770582        1.171301       16.039581
 H        14.271185        6.369272       16.835928
 H        13.833195        5.100579       17.600605
 H         8.155805        1.500415       16.908785
 H         9.058482        2.760350       16.896429
 H         9.034274       10.048022        3.329013
 H         8.144997        8.781022        3.328744
 H        13.409378       12.125938        1.900004
 H        12.066832       12.149392        1.129810
 H        13.855618       12.373065        4.146822
 H        15.184858       12.334037        3.352572
 H        12.080335       12.151136        5.607397
 H        13.410711       12.166245        6.393103
 H         9.960293        8.506447        4.738019
 H        11.310009        8.520320        5.499890
 H        10.386873       13.690366        5.578564
 H         9.929173       12.439456        6.372576
 H        12.930907       10.039645        1.085421
 H        12.027386        8.783530        1.086257
 H        13.447322        8.773743        6.327514
 H        13.007101       10.054504        5.583851
 H         9.066473       10.843173        7.785574
 H         8.156076       12.091866        7.793219
 H         9.518209       12.145656        4.143326
 H         8.174509       12.154840        3.374165
 H         9.923355       12.408334        1.902922
 H        10.372499       13.678064        1.151448
 H         9.886793        8.497805        1.865276
 H         9.899781        8.483807        0.318583
 H        13.804907        8.506440        4.071733
 H        13.778630        8.488545        2.526147
 H        14.297050        7.193663        7.788606
 H        15.191070        8.452296        7.796473
 H        13.802998       12.460996        8.632716
 H        14.267057       13.710889        7.843661
 H         9.558948        8.752432        8.542671
 H         9.569921        8.747340        6.995372
 H         1.760040        8.678356        2.526063
 H         0.410365        8.709693        3.282716
 H         5.633449       12.136617        0.301548
 H         4.289162       12.138196        1.062228
 H         6.006030       12.375264        4.113096
 H         6.023002       12.383592        2.568401
 H         4.259148       12.083758        5.562994
 H         5.160768       10.825566        5.568812
 H         2.149387        8.437855        4.769651
 H         2.599881        7.187319        5.555085
 H         2.120619       12.375999        6.338159
 H         2.136380       12.357136        4.789287
 H         5.190871       10.021955        1.073938
 H         5.647871        8.776212        0.284877
 H         4.286596        8.725389        5.559217
 H         5.619348        8.734414        4.778392
 H         0.394494       12.135974        7.837088
 H         1.732716       12.131334        8.603162
 H         1.350507       10.792933        3.292038
 H         1.781896       12.064145        2.523980
 H         2.582458       13.662191        1.067144
 H         2.153557       12.407255        0.266911
 H         2.643940        7.143204        1.075496
 H         3.523301        8.417794        1.082669
 H         6.014911        8.448670        2.534750
 H         6.461181        7.196764        3.327296
 H         6.062325        8.467752        7.015667
 H         7.408587        8.471180        7.774839
 H         5.997134       12.381247        8.529401
 H         6.013222       12.384197        6.986929
 H         1.336782       10.018319        7.804423
 H         1.790578        8.764355        7.021393
 H         1.332719        2.726305        3.380306
 H         1.795651        1.472995        4.166649
 H         5.664975        4.842641        1.893139
 H         5.689695        4.853039        0.346250
 H         6.051018        5.083138        4.154884
 H         7.386649        5.100440        3.373469
 H         5.210722        3.523983        5.626332
 H         5.649779        4.787452        6.396950
 H         3.562258        1.124545        5.597996
 H         2.650248       14.474726        5.573109
 H         3.521942        5.075278        5.555798
 H         2.188153        5.079306        4.769714
 H         5.190209        2.733821        1.121889
 H         5.628790        1.460934        0.368149
 H         5.687285        1.419870        6.391150
 H         5.686912        1.417617        4.843070
 H         1.355036        3.537215        7.788070
 H         1.790556        4.802161        7.018483
 H         1.753285        4.810447        2.521442
 H         0.425097        4.837066        3.315929
 H         3.523960        5.048556        1.059958
 H         2.190379        5.036460        0.271636
 H         2.153109        1.163263        1.929101
 H         3.479801        1.174255        1.142567
 H         6.471085       14.490436        3.341190
 H         6.006389        1.156827        2.588972
 H         6.545847       14.474908        7.832083
 H         7.444938        1.137027        7.806951
 H         7.409512        5.091921        7.820915
 H         6.503669        6.337956        7.851665
 H         1.827755        1.432912        8.588185
 H         1.834437        1.411586        7.042507
 H         8.137141        1.490507        3.356459
 H         9.023838        2.764184        3.339389
 H        12.989882        3.536693        1.130166
 H        13.449827        4.795740        1.900363
 H        14.257365        6.385706        3.343208
 H        13.824678        5.128476        4.133559
 H        13.440572        4.802310        6.368407
 H        12.995889        3.555152        5.570290
 H        11.325417        1.188707        5.479195
 H         9.971737        1.200473        4.715454
 H        11.313347        5.137875        5.539339
 H        10.431869        6.410211        5.518050
 H        12.054632        1.427069        1.167808
 H        13.420407        1.407784        1.892622
 H        13.460824        1.442433        6.305116
 H        13.475631        1.425442        4.760957
 H         9.575841        4.846421        8.513273
 H         9.556496        4.873048        6.971678
 H         9.541068        4.848471        2.549556
 H         9.554003        4.858499        4.091677
 H        10.428418        6.398927        1.105138
 H        11.321810        5.132275        1.108871
 H         9.908143        1.188675        0.411512
 H         9.905809        1.183637        1.947448
 H        14.327575       14.456400        3.324560
 H        15.211816        1.125817        3.332136
 H        15.212170        1.197224        7.794999
 H        13.881037        1.224782        8.573030
 H        13.859884        5.104326        8.610830
 H        15.188407        5.082983        7.823088
 H         9.560962        1.491492        6.878303
 H         9.101847        2.740044        7.680019
 H         1.345006        2.748497       12.336974
 H         1.760857        1.485196       13.123672
 H         5.669113        4.714912        9.304949
 H         4.325530        4.693369       10.061715
 H         6.451214        6.403110       12.281703
 H         6.049307        5.106305       11.535810
 H         5.670462        4.832095       13.794353
 H         5.188855        3.592063       14.583487
 H         2.068458        1.125312       15.399795
 H         2.546572       14.487386       14.600476
 H         3.535852        5.140170       14.604646
 H         2.182310        5.091530       15.348656
 H         5.388558        2.626327       10.168566
 H         5.838300        1.374042        9.347850
 H         4.144513        1.449121       14.651926
 H         5.449144        1.427377       13.856442
 H         1.280004        3.501708       16.779858
 H         0.417872        4.783501       16.785732
 H         1.824965        4.862369       13.090488
 H         1.827837        4.830772       11.541884
 H         2.648282        6.321533       10.043827
 H         2.188416        5.068410        9.272396
 H         3.552329        1.147835       10.154238
 H         2.201410        1.208533       10.894875
 H         6.498576       14.239841       12.221070
 H         6.095345        1.087039       11.328869
 H         5.988249        1.159460       16.094248
 H         6.479834       14.499151       16.827293
 H         7.426107        5.117676       16.810898
 H         6.086737        5.116681       16.041298
 H         0.358550        1.389277       16.856562
 H         1.702217        1.399703       17.631336
 H         8.138522        8.768754       12.281043
 H         9.028730       10.024595       12.288076
 H        12.954348       10.868382       10.053308
 H        12.044257       12.116697       10.069926
 H        13.788001       12.386344       11.550926
 H        13.809073       12.367553       13.097421
 H        13.011256       10.799092       14.582261
 H        13.451642       12.061465       15.362100
 H        10.384370        7.211440       14.538207
 H         9.917742        8.455325       13.747212
 H        10.443819       13.608926       14.639863
 H        11.323576       12.344217       14.558782
 H        12.080051        8.771920       10.007071
 H        13.415055        8.758074        9.227961
 H        12.074341        8.720704       14.521150
 H        13.417936        8.720945       13.753347
 H         9.583139       12.103576       16.039486
 H         9.565879       12.131638       17.586346
 H         9.533278       12.147501       13.084683
 H         9.503864       12.172575       11.537467
 H         9.892663       12.401662        9.265621
 H        10.354094       13.677195        9.990261
 H        10.401205        7.237976       10.019271
 H         9.925889        8.481863       10.803827
 H        15.181095        8.518197       12.266366
 H        13.845118        8.515959       11.486851
 H        13.778268        8.491906       17.576799
 H        13.798982        8.459618       16.031017
 H        13.816795       12.389552       17.605370
 H        14.250390       13.645513       16.823269
 H         9.540761        8.772014       15.997434
 H         9.099858       10.025974       16.786133
 H         1.798631        8.743660       13.074951
 H         1.815201        8.720333       11.526021
 H         4.229622       12.132634       10.042223
 H         5.579513       12.130896       10.785055
 H         7.417243       12.451330       12.321728
 H         6.051547       12.451801       13.097582
 H         4.301161       12.151261       14.494578
 H         5.191846       10.890442       14.480543
 H         2.138372        8.482327       15.354256
 H         2.598727        7.224742       14.587966
 H         2.147357       12.387724       13.763270
 H         2.161056       12.365591       15.307451
 H         5.664552        8.747127        9.231530
 H         5.180864       10.011937        9.976871
 H         5.619475        8.789495       15.324682
 H         4.269175        8.789796       14.574336
 H         1.309261       10.822933       16.779583
 H         0.416233       12.083953       16.775734
 H         1.308199       10.839250       12.297368
 H         0.394625       12.089587       12.310928
 H         2.573629       13.673396       10.101075
 H         2.122261       12.405829       10.863523
 H         2.177036        8.443089        9.272449
 H         3.525019        8.442659       10.019066
 H         5.989524        8.511028       11.507187
 H         5.981129        8.521005       13.056967
 H         6.510832        7.226263       16.793131
 H         7.400876        8.484633       16.776243
 H         6.087946       12.396473       15.977470
 H         7.414929       12.387599       16.770491
 H         0.400292        8.721801       16.837038
 H         1.747720        8.709804       17.598364
