384
 generated by VMD
 O         9.076036        1.777349       12.297333
 O        12.917590        4.501639       10.074557
 O        14.309803        5.414400       12.253933
 O        13.016537        4.489408       14.494384
 O        10.387341        0.887271       14.539116
 O        10.444714        5.429625       14.523590
 O        12.974688        1.773446       10.054657
 O        12.991849        1.755379       14.527074
 O         9.131491        4.551580       16.774139
 O         9.072514        4.501797       12.314707
 O        10.310966        5.392167       10.070158
 O        10.385571        0.896394       10.055045
 O        14.287776        0.859585       12.286249
 O        14.278235        0.847564       16.765314
 O        14.281743        5.411137       16.750101
 O         9.099663        1.802697       16.770130
 O         9.127681        9.070338        3.332076
 O        13.006338       11.815368        1.105163
 O        14.259608       12.733112        3.370545
 O        12.947669       11.815452        5.604389
 O        10.342565        8.132658        5.609139
 O        10.371408       12.744443        5.591319
 O        12.969203        9.085949        1.092464
 O        12.925233        9.071334        5.597340
 O         9.115615       11.838573        7.838123
 O         9.131009       11.804510        3.339751
 O        10.408220       12.705743        1.081501
 O        10.398900        8.164629        1.077441
 O        14.224461        8.185571        3.344510
 O        14.240485        8.162928        7.831674
 O        14.231633       12.734329        7.836323
 O         9.076641        9.124860        7.850503
 O         1.283838        9.056561        3.332782
 O         5.202446       11.833479        1.063412
 O         6.529187       12.671242        3.310574
 O         5.214745       11.803715        5.564410
 O         2.565431        8.167434        5.589982
 O         2.597231       12.645685        5.574115
 O         5.190908        9.089888        1.031593
 O         5.166787        9.070701        5.520993
 O         1.283235       11.809111        7.840110
 O         1.300350       11.790081        3.334705
 O         2.612625       12.727390        1.107109
 O         2.606631        8.131400        1.109367
 O         6.512141        8.234342        3.261563
 O         6.513693        8.285932        7.839646
 O         6.505323       12.644868        7.837217
 O         1.290838        9.076007        7.843257
 O         1.297056        1.770243        3.340392
 O         5.181829        4.465647        0.951556
 O         6.611235        5.463159        3.018883
 O         4.745719        4.245167        6.245522
 O         2.563641        0.760977        5.561881
 O         2.468981        5.442134        5.641566
 O         5.223846        1.731820        1.039048
 O         5.159613        1.540042        5.533296
 O         1.265257        4.475606        7.915701
 O         1.284010        4.537999        3.363273
 O         2.592147        5.391721        1.079449
 O         2.616477        0.867727        1.097646
 O         6.543632        0.804351        3.259785
 O         6.501374        0.760618        7.816361
 O         6.481419        5.167865        7.973321
 O         1.320714        1.728833        7.823146
 O         9.124958        1.754873        3.281235
 O        13.034181        4.509427        1.070849
 O        14.232013        5.444236        3.359179
 O        12.912298        4.557879        5.620156
 O        10.373572        0.883992        5.561458
 O        10.279154        5.387574        5.701803
 O        12.980023        1.767644        1.059927
 O        12.948069        1.814645        5.588240
 O         8.831359        4.431997        7.786684
 O         9.199706        4.509478        3.278544
 O        10.471106        5.435800        1.048395
 O        10.399105        0.845864        1.041205
 O        14.237752        0.883120        3.337231
 O        14.256213        0.869224        7.822389
 O        14.231314        5.428295        7.865436
 O         9.054523        1.766512        7.782850
 O         1.349425        1.770241       12.343293
 O         5.304500        4.591291       10.079812
 O         6.477178        5.443666       12.300996
 O         5.211699        4.508133       14.505795
 O         2.658954        0.831792       14.564674
 O         2.634639        5.425544       14.545819
 O         5.237539        1.726546       10.040260
 O         5.242717        1.762747       14.513028
 O         1.317976        4.485701       16.763311
 O         1.357089        4.516672       12.301642
 O         2.725895        5.415046       10.057493
 O         2.610783        0.858716       10.090450
 O         6.524578        0.817526       12.287610
 O         6.530726        0.845705       16.745050
 O         6.530735        5.411439       16.708929
 O         1.334574        1.744199       16.779047
 O         9.081289        9.059742       12.299379
 O        12.953273       11.798813       10.084477
 O        14.262333       12.710916       12.313084
 O        12.980824       11.833077       14.568257
 O        10.395511        8.174298       14.538162
 O        10.391751       12.749753       14.552654
 O        12.964120        9.047547       10.081066
 O        12.987814        9.084698       14.545170
 O         9.109260       11.807699       16.778528
 O         9.105145       11.805813       12.317321
 O        10.389119       12.746520       10.079825
 O        10.386876        8.158897       10.064635
 O        14.286337        8.146947       12.313744
 O        14.260633        8.154340       16.801498
 O        14.288734       12.712214       16.807613
 O         9.102121        9.070441       16.786213
 O         1.333737        9.057074       12.342766
 O         5.179785       11.853584       10.092752
 O         6.518472       12.703820       12.329776
 O         5.226904       11.802202       14.563311
 O         2.628583        8.164726       14.581247
 O         2.628005       12.698061       14.559807
 O         5.154647        9.127182       10.101730
 O         5.216231        9.065350       14.562623
 O         1.340840       11.793050       16.802378
 O         1.313338       11.792564       12.319230
 O         2.585212       12.724075       10.073643
 O         2.594438        8.142947       10.088656
 O         6.473099        8.164248       12.313723
 O         6.517182        8.151361       16.780128
 O         6.513440       12.716052       16.783751
 O         1.324100        9.055939       16.824963
 H         9.522566        1.461289       11.504567
 H         8.182921        1.415598       12.274979
 H        11.998551        4.783230       10.073539
 H        12.916025        3.537713       10.069901
 H        14.285350        6.377778       12.260409
 H        13.818316        5.125788       11.478233
 H        13.022566        3.525981       14.486356
 H        13.480769        4.782548       13.703635
 H         9.920816        1.224092       15.312254
 H         9.917177        1.215506       13.766060
 H         9.989330        5.089550       13.748037
 H        11.345945        5.090649       14.488450
 H        13.443567        1.446424        9.277990
 H        13.449287        1.443222       10.825171
 H        13.424706        1.422560       15.321186
 H        12.081537        1.442074       14.551468
 H         9.607671        4.873806       17.547546
 H         9.612458        4.866333       16.002022
 H         9.040697        3.537692       12.315383
 H         8.162748        4.812825       12.331890
 H         9.858053        5.071903       10.860679
 H         9.818350        5.060237        9.321821
 H         9.954613        1.211449        9.255545
 H        11.292944        1.220558       10.033373
 H        15.192582        1.186087       12.323312
 H        13.846323        1.182798       13.079321
 H        15.192955        1.149706       16.770288
 H        14.307944       14.486838       16.779982
 H        15.186800        5.080754       16.730225
 H        13.850990        5.078215       15.955930
 H         9.125133        2.764654       16.802618
 H         9.557738        1.483745       17.555758
 H         8.213581        8.770153        3.294474
 H         9.560246        8.733227        2.539921
 H        13.010957       10.852093        1.125345
 H        13.443448       12.116036        1.908683
 H        13.794722       12.437321        4.160168
 H        14.242092       13.695679        3.380494
 H        12.034396       12.121965        5.597319
 H        12.916846       10.852724        5.600699
 H         9.874858        8.497205        6.366518
 H         9.894069        8.457269        4.820382
 H        10.362421       13.706947        5.557419
 H         9.927972       12.433963        4.793922
 H        12.062588        8.759483        1.064322
 H        13.408441        8.747313        0.305076
 H        13.370623        8.739173        6.383780
 H        12.025727        8.728132        5.622148
 H         9.575731       12.174443        7.060288
 H         9.578922       12.180982        8.610459
 H         9.151711       10.841094        3.319961
 H         9.581626       12.104447        2.543192
 H        11.315075       12.382121        1.065951
 H         9.975726       12.374441        0.287634
 H        10.410830        7.201351        1.051007
 H         9.935865        8.461367        0.286727
 H        13.754654        8.511546        4.119330
 H        13.758961        8.519625        2.569891
 H        14.267479        7.199990        7.837408
 H        15.154648        8.466497        7.830320
 H        13.766119       12.398046        7.062268
 H        13.766314       12.396963        8.608500
 H         9.545074        8.810987        8.631077
 H         9.117183       10.088851        7.866835
 H         0.378144        8.729095        3.309260
 H         1.730471        8.713774        2.551533
 H         5.648748       12.133655        1.862572
 H         4.298947       12.164562        1.105820
 H         7.435199       12.345519        3.339787
 H         6.091239       12.359585        4.109454
 H         4.300326       12.106113        5.569024
 H         5.174256       10.841372        5.539433
 H         2.105221        8.513235        6.362390
 H         2.099937        8.496682        4.813126
 H         2.123288       12.332743        6.351420
 H         2.126346       12.310900        4.802310
 H         5.191172       10.053101        1.040726
 H         5.653318        8.814206        1.830939
 H         5.609112        8.780805        6.321649
 H         4.264180        8.736362        5.563952
 H         1.726198       12.150460        8.624178
 H         0.380750       12.144330        7.860185
 H         0.388548       12.100127        3.343582
 H         1.269019       10.827172        3.315070
 H         2.596918       13.690253        1.127196
 H         2.150789       12.423654        1.895497
 H         3.517090        8.444352        1.090030
 H         2.639980        7.168631        1.100325
 H         6.519294        7.275024        3.220789
 H         6.038950        8.477469        4.064046
 H         7.433033        8.592463        7.840311
 H         6.558095        7.338694        7.796165
 H         7.418397       12.338202        7.809140
 H         6.072023       12.326665        7.037281
 H         1.748234        8.773155        8.633830
 H         1.296738       10.039427        7.871292
 H         1.275660        2.731992        3.358456
 H         0.379119        1.477689        3.329470
 H         5.213168        3.501978        0.961818
 H         5.643662        4.757782        0.158104
 H         6.094864        5.098275        2.283083
 H         6.234494        5.092556        3.807024
 H         3.899258        4.697927        6.048533
 H         5.899492        4.849969        7.258561
 H         2.110527        1.085723        4.776503
 H         2.534328       14.399371        5.533649
 H         2.062697        5.139407        4.819146
 H         2.501454        6.406513        5.604768
 H         5.686666        1.400604        0.261916
 H         5.703884        1.403125        1.806871
 H         5.092795        2.480824        5.646832
 H         4.244396        1.227756        5.523353
 H         1.290831        3.513537        7.862953
 H         1.649893        4.804546        7.098167
 H         0.379895        4.871438        3.334911
 H         1.722688        4.847793        2.564562
 H         2.148443        5.070695        0.287379
 H         3.492044        5.053008        1.035707
 H         2.182359        1.211312        1.885156
 H         3.525871        1.184326        1.112138
 H         6.545975       14.442582        3.277542
 H         6.068908        1.079228        4.048926
 H         6.506762       14.397219        7.831422
 H         6.036814        1.006681        7.010169
 H         7.456187        4.829538        7.867285
 H         6.039034        4.938800        8.873869
 H         1.792570        1.408106        8.598441
 H         1.777101        1.380228        7.050090
 H         9.108254        2.717201        3.281320
 H         8.208600        1.458070        3.284502
 H        13.483004        4.803702        0.271002
 H        13.028233        3.546519        1.047774
 H        13.799639        5.134756        2.556190
 H        14.208824        6.406683        3.333131
 H        13.372498        4.883231        4.839672
 H        13.398657        4.881497        6.385603
 H        11.277875        1.216725        5.552467
 H         9.950784        1.204275        4.756787
 H        10.296660        6.351383        5.671909
 H        11.200049        5.103456        5.693104
 H        13.423841        1.431528        0.274223
 H        12.074908        1.439327        1.028546
 H        13.413307        1.504514        6.371860
 H        12.952887        2.777148        5.624206
 H         9.318217        4.785195        7.021876
 H         8.924698        3.462460        7.757812
 H         9.539537        4.828853        4.119547
 H         8.309993        4.861368        3.191943
 H        10.056468        5.105554        1.852704
 H        11.376991        5.106664        1.057309
 H         9.947490        1.147259        1.837374
 H        10.392949       14.485184        1.068682
 H        13.772856        1.198240        2.554831
 H        13.769927        1.230467        4.103218
 H        15.177889        1.148912        7.818895
 H        14.260687       14.507775        7.818803
 H        15.124537        5.071853        7.910770
 H        13.770008        5.104469        8.646321
 H         9.502892        1.449314        6.988235
 H         8.169335        1.384064        7.770164
 H         1.808687        1.464468       13.132890
 H         1.363970        2.732466       12.361435
 H         5.712580        4.909172       10.905958
 H         4.383027        4.899640       10.071951
 H         6.470809        6.409204       12.330267
 H         6.016718        5.136226       13.093284
 H         5.663932        4.833691       15.293196
 H         4.306059        4.835659       14.546669
 H         3.575585        1.125287       14.550039
 H         2.670472       14.470392       14.557809
 H         2.174281        5.138765       13.750239
 H         2.619237        6.388965       14.544131
 H         5.676511        1.413237        9.239483
 H         5.278992        2.681080       10.028069
 H         5.239482        2.725112       14.489517
 H         5.695175        1.461313       13.718313
 H         1.789399        4.789795       15.980968
 H         1.337692        3.522753       16.747253
 H         0.451382        4.843552       12.252349
 H         1.811607        4.834268       11.516825
 H         2.225498        5.097492        9.297586
 H         2.664458        6.378493       10.047638
 H         3.516464        1.179130       10.100432
 H         2.186786        1.191077       10.889542
 H         6.065818        1.096030       11.489788
 H         6.510118       14.454938       12.297678
 H         7.428720        1.194004       16.737810
 H         6.096992        1.177516       15.951848
 H         6.541466        6.374457       16.742023
 H         7.450700        5.125826       16.736025
 H         1.818042        1.406028       16.017788
 H         1.797962        1.431584       17.563540
 H         8.172772        8.743073       12.277435
 H         9.515128        8.727754       11.506367
 H        12.965411       10.836250       10.100362
 H        13.418962       12.095101       10.874012
 H        13.810420       12.426134       13.115114
 H        14.261071       13.673630       12.322436
 H        12.079505       12.171330       14.586740
 H        13.417075       12.150481       15.366484
 H         9.930580        8.461463       13.745357
 H        10.406018        7.211675       14.517438
 H         9.943719       12.437526       13.759588
 H        10.371869       13.712392       14.524801
 H        13.447530        8.722962       10.848096
 H        13.433434        8.730786        9.300901
 H        12.965880       10.047414       14.554939
 H        12.071394        8.788999       14.542395
 H         8.202823       12.132608       16.768661
 H         9.536428       12.154367       15.987827
 H         9.114479       10.843367       12.289220
 H         9.554268       12.113370       11.522868
 H        11.302766       12.439566       10.084385
 H        10.415571       13.708571       10.078407
 H        11.307498        8.446431       10.074770
 H        10.394593        7.198205       10.057185
 H        15.191397        8.475826       12.343727
 H        13.844376        8.482371       13.101131
 H        14.256430        7.191974       16.762478
 H        13.814768        8.465094       16.006792
 H        15.191159       12.375868       16.820826
 H        13.862181       12.388910       17.609051
 H         9.555670        8.770751       15.991420
 H         9.118484       10.033469       16.766302
 H         1.793520        8.768812       13.138839
 H         1.338683       10.020554       12.350556
 H         5.662804       12.146074        9.311990
 H         5.668624       12.164909       10.861865
 H         7.422097       12.370099       12.346025
 H         6.081708       12.374836       13.123539
 H         5.658195       12.140386       15.356894
 H         4.319051       12.122535       14.580583
 H         2.192780        8.485467       15.378237
 H         3.533391        8.494561       14.602948
 H         2.153060       12.375449       13.786974
 H         2.160171       12.366801       15.334261
 H         5.161773       10.091659       10.092101
 H         5.625768        8.848150        9.312267
 H         5.233796       10.028406       14.586728
 H         5.683872        8.760537       15.348865
 H         1.351536       10.830336       16.835449
 H         1.791921       12.103933       17.594585
 H         1.744953       12.124949       11.524903
 H         0.407819       12.120192       12.299804
 H         2.609115       13.686658       10.082483
 H         3.502799       12.430927       10.077260
 H         3.488103        8.501994       10.103268
 H         2.159438        8.461278       10.887608
 H         6.022104        8.495509       13.099256
 H         5.995230        8.512934       11.553584
 H         6.072019        8.485133       17.567610
 H         7.419580        8.487404       16.806067
 H         6.049997       12.429093       17.578812
 H         6.513097       13.679313       16.793015
 H         1.751087        8.714203       17.618458
 H         0.416846        8.733579       16.835119
384
 generated by VMD
 O         9.076036        1.777349       12.297333
 O        12.917590        4.501639       10.074557
 O        14.309803        5.414400       12.253933
 O        13.016537        4.489408       14.494384
 O        10.387341        0.887271       14.539116
 O        10.444714        5.429625       14.523590
 O        12.974688        1.773446       10.054657
 O        12.991849        1.755379       14.527074
 O         9.131491        4.551580       16.774139
 O         9.072514        4.501797       12.314707
 O        10.310966        5.392167       10.070158
 O        10.385571        0.896394       10.055045
 O        14.287776        0.859585       12.286249
 O        14.278235        0.847564       16.765314
 O        14.281743        5.411137       16.750101
 O         9.099663        1.802697       16.770130
 O         9.127681        9.070338        3.332076
 O        13.006338       11.815368        1.105163
 O        14.259608       12.733112        3.370545
 O        12.947669       11.815452        5.604389
 O        10.342565        8.132658        5.609139
 O        10.371408       12.744443        5.591319
 O        12.969203        9.085949        1.092464
 O        12.925233        9.071334        5.597340
 O         9.115615       11.838573        7.838123
 O         9.131009       11.804510        3.339751
 O        10.408220       12.705743        1.081501
 O        10.398900        8.164629        1.077441
 O        14.224461        8.185571        3.344510
 O        14.240485        8.162928        7.831674
 O        14.231633       12.734329        7.836323
 O         9.076641        9.124860        7.850503
 O         1.283838        9.056561        3.332782
 O         5.202446       11.833479        1.063412
 O         6.529187       12.671242        3.310574
 O         5.214745       11.803715        5.564410
 O         2.565431        8.167434        5.589982
 O         2.597231       12.645685        5.574115
 O         5.190908        9.089888        1.031593
 O         5.166787        9.070701        5.520993
 O         1.283235       11.809111        7.840110
 O         1.300350       11.790081        3.334705
 O         2.612625       12.727390        1.107109
 O         2.606631        8.131400        1.109367
 O         6.512141        8.234342        3.261563
 O         6.513693        8.285932        7.839646
 O         6.505323       12.644868        7.837217
 O         1.290838        9.076007        7.843257
 O         1.297056        1.770243        3.340392
 O         5.181829        4.465647        0.951556
 O         6.611235        5.463159        3.018883
 O         4.745719        4.245167        6.245522
 O         2.563641        0.760977        5.561881
 O         2.468981        5.442134        5.641566
 O         5.223846        1.731820        1.039048
 O         5.159613        1.540042        5.533296
 O         1.265257        4.475606        7.915701
 O         1.284010        4.537999        3.363273
 O         2.592147        5.391721        1.079449
 O         2.616477        0.867727        1.097646
 O         6.543632        0.804351        3.259785
 O         6.501374        0.760618        7.816361
 O         6.481419        5.167865        7.973321
 O         1.320714        1.728833        7.823146
 O         9.124958        1.754873        3.281235
 O        13.034181        4.509427        1.070849
 O        14.232013        5.444236        3.359179
 O        12.912298        4.557879        5.620156
 O        10.373572        0.883992        5.561458
 O        10.279154        5.387574        5.701803
 O        12.980023        1.767644        1.059927
 O        12.948069        1.814645        5.588240
 O         8.831359        4.431997        7.786684
 O         9.199706        4.509478        3.278544
 O        10.471106        5.435800        1.048395
 O        10.399105        0.845864        1.041205
 O        14.237752        0.883120        3.337231
 O        14.256213        0.869224        7.822389
 O        14.231314        5.428295        7.865436
 O         9.054523        1.766512        7.782850
 O         1.349425        1.770241       12.343293
 O         5.304500        4.591291       10.079812
 O         6.477178        5.443666       12.300996
 O         5.211699        4.508133       14.505795
 O         2.658954        0.831792       14.564674
 O         2.634639        5.425544       14.545819
 O         5.237539        1.726546       10.040260
 O         5.242717        1.762747       14.513028
 O         1.317976        4.485701       16.763311
 O         1.357089        4.516672       12.301642
 O         2.725895        5.415046       10.057493
 O         2.610783        0.858716       10.090450
 O         6.524578        0.817526       12.287610
 O         6.530726        0.845705       16.745050
 O         6.530735        5.411439       16.708929
 O         1.334574        1.744199       16.779047
 O         9.081289        9.059742       12.299379
 O        12.953273       11.798813       10.084477
 O        14.262333       12.710916       12.313084
 O        12.980824       11.833077       14.568257
 O        10.395511        8.174298       14.538162
 O        10.391751       12.749753       14.552654
 O        12.964120        9.047547       10.081066
 O        12.987814        9.084698       14.545170
 O         9.109260       11.807699       16.778528
 O         9.105145       11.805813       12.317321
 O        10.389119       12.746520       10.079825
 O        10.386876        8.158897       10.064635
 O        14.286337        8.146947       12.313744
 O        14.260633        8.154340       16.801498
 O        14.288734       12.712214       16.807613
 O         9.102121        9.070441       16.786213
 O         1.333737        9.057074       12.342766
 O         5.179785       11.853584       10.092752
 O         6.518472       12.703820       12.329776
 O         5.226904       11.802202       14.563311
 O         2.628583        8.164726       14.581247
 O         2.628005       12.698061       14.559807
 O         5.154647        9.127182       10.101730
 O         5.216231        9.065350       14.562623
 O         1.340840       11.793050       16.802378
 O         1.313338       11.792564       12.319230
 O         2.585212       12.724075       10.073643
 O         2.594438        8.142947       10.088656
 O         6.473099        8.164248       12.313723
 O         6.517182        8.151361       16.780128
 O         6.513440       12.716052       16.783751
 O         1.324100        9.055939       16.824963
 H         9.522566        1.461289       11.504567
 H         8.182921        1.415598       12.274979
 H        11.998551        4.783230       10.073539
 H        12.916025        3.537713       10.069901
 H        14.285350        6.377778       12.260409
 H        13.818316        5.125788       11.478233
 H        13.022566        3.525981       14.486356
 H        13.480769        4.782548       13.703635
 H         9.920816        1.224092       15.312254
 H         9.917177        1.215506       13.766060
 H         9.989330        5.089550       13.748037
 H        11.345945        5.090649       14.488450
 H        13.443567        1.446424        9.277990
 H        13.449287        1.443222       10.825171
 H        13.424706        1.422560       15.321186
 H        12.081537        1.442074       14.551468
 H         9.607671        4.873806       17.547546
 H         9.612458        4.866333       16.002022
 H         9.040697        3.537692       12.315383
 H         8.162748        4.812825       12.331890
 H         9.858053        5.071903       10.860679
 H         9.818350        5.060237        9.321821
 H         9.954613        1.211449        9.255545
 H        11.292944        1.220558       10.033373
 H        15.192582        1.186087       12.323312
 H        13.846323        1.182798       13.079321
 H        15.192955        1.149706       16.770288
 H        14.307944       14.486838       16.779982
 H        15.186800        5.080754       16.730225
 H        13.850990        5.078215       15.955930
 H         9.125133        2.764654       16.802618
 H         9.557738        1.483745       17.555758
 H         8.213581        8.770153        3.294474
 H         9.560246        8.733227        2.539921
 H        13.010957       10.852093        1.125345
 H        13.443448       12.116036        1.908683
 H        13.794722       12.437321        4.160168
 H        14.242092       13.695679        3.380494
 H        12.034396       12.121965        5.597319
 H        12.916846       10.852724        5.600699
 H         9.874858        8.497205        6.366518
 H         9.894069        8.457269        4.820382
 H        10.362421       13.706947        5.557419
 H         9.927972       12.433963        4.793922
 H        12.062588        8.759483        1.064322
 H        13.408441        8.747313        0.305076
 H        13.370623        8.739173        6.383780
 H        12.025727        8.728132        5.622148
 H         9.575731       12.174443        7.060288
 H         9.578922       12.180982        8.610459
 H         9.151711       10.841094        3.319961
 H         9.581626       12.104447        2.543192
 H        11.315075       12.382121        1.065951
 H         9.975726       12.374441        0.287634
 H        10.410830        7.201351        1.051007
 H         9.935865        8.461367        0.286727
 H        13.754654        8.511546        4.119330
 H        13.758961        8.519625        2.569891
 H        14.267479        7.199990        7.837408
 H        15.154648        8.466497        7.830320
 H        13.766119       12.398046        7.062268
 H        13.766314       12.396963        8.608500
 H         9.545074        8.810987        8.631077
 H         9.117183       10.088851        7.866835
 H         0.378144        8.729095        3.309260
 H         1.730471        8.713774        2.551533
 H         5.648748       12.133655        1.862572
 H         4.298947       12.164562        1.105820
 H         7.435199       12.345519        3.339787
 H         6.091239       12.359585        4.109454
 H         4.300326       12.106113        5.569024
 H         5.174256       10.841372        5.539433
 H         2.105221        8.513235        6.362390
 H         2.099937        8.496682        4.813126
 H         2.123288       12.332743        6.351420
 H         2.126346       12.310900        4.802310
 H         5.191172       10.053101        1.040726
 H         5.653318        8.814206        1.830939
 H         5.609112        8.780805        6.321649
 H         4.264180        8.736362        5.563952
 H         1.726198       12.150460        8.624178
 H         0.380750       12.144330        7.860185
 H         0.388548       12.100127        3.343582
 H         1.269019       10.827172        3.315070
 H         2.596918       13.690253        1.127196
 H         2.150789       12.423654        1.895497
 H         3.517090        8.444352        1.090030
 H         2.639980        7.168631        1.100325
 H         6.519294        7.275024        3.220789
 H         6.038950        8.477469        4.064046
 H         7.433033        8.592463        7.840311
 H         6.558095        7.338694        7.796165
 H         7.418397       12.338202        7.809140
 H         6.072023       12.326665        7.037281
 H         1.748234        8.773155        8.633830
 H         1.296738       10.039427        7.871292
 H         1.275660        2.731992        3.358456
 H         0.379119        1.477689        3.329470
 H         5.213168        3.501978        0.961818
 H         5.643662        4.757782        0.158104
 H         6.094864        5.098275        2.283083
 H         6.234494        5.092556        3.807024
 H         3.899258        4.697927        6.048533
 H         5.899492        4.849969        7.258561
 H         2.110527        1.085723        4.776503
 H         2.534328       14.399371        5.533649
 H         2.062697        5.139407        4.819146
 H         2.501454        6.406513        5.604768
 H         5.686666        1.400604        0.261916
 H         5.703884        1.403125        1.806871
 H         5.092795        2.480824        5.646832
 H         4.244396        1.227756        5.523353
 H         1.290831        3.513537        7.862953
 H         1.649893        4.804546        7.098167
 H         0.379895        4.871438        3.334911
 H         1.722688        4.847793        2.564562
 H         2.148443        5.070695        0.287379
 H         3.492044        5.053008        1.035707
 H         2.182359        1.211312        1.885156
 H         3.525871        1.184326        1.112138
 H         6.545975       14.442582        3.277542
 H         6.068908        1.079228        4.048926
 H         6.506762       14.397219        7.831422
 H         6.036814        1.006681        7.010169
 H         7.456187        4.829538        7.867285
 H         6.039034        4.938800        8.873869
 H         1.792570        1.408106        8.598441
 H         1.777101        1.380228        7.050090
 H         9.108254        2.717201        3.281320
 H         8.208600        1.458070        3.284502
 H        13.483004        4.803702        0.271002
 H        13.028233        3.546519        1.047774
 H        13.799639        5.134756        2.556190
 H        14.208824        6.406683        3.333131
 H        13.372498        4.883231        4.839672
 H        13.398657        4.881497        6.385603
 H        11.277875        1.216725        5.552467
 H         9.950784        1.204275        4.756787
 H        10.296660        6.351383        5.671909
 H        11.200049        5.103456        5.693104
 H        13.423841        1.431528        0.274223
 H        12.074908        1.439327        1.028546
 H        13.413307        1.504514        6.371860
 H        12.952887        2.777148        5.624206
 H         9.318217        4.785195        7.021876
 H         8.924698        3.462460        7.757812
 H         9.539537        4.828853        4.119547
 H         8.309993        4.861368        3.191943
 H        10.056468        5.105554        1.852704
 H        11.376991        5.106664        1.057309
 H         9.947490        1.147259        1.837374
 H        10.392949       14.485184        1.068682
 H        13.772856        1.198240        2.554831
 H        13.769927        1.230467        4.103218
 H        15.177889        1.148912        7.818895
 H        14.260687       14.507775        7.818803
 H        15.124537        5.071853        7.910770
 H        13.770008        5.104469        8.646321
 H         9.502892        1.449314        6.988235
 H         8.169335        1.384064        7.770164
 H         1.808687        1.464468       13.132890
 H         1.363970        2.732466       12.361435
 H         5.712580        4.909172       10.905958
 H         4.383027        4.899640       10.071951
 H         6.470809        6.409204       12.330267
 H         6.016718        5.136226       13.093284
 H         5.663932        4.833691       15.293196
 H         4.306059        4.835659       14.546669
 H         3.575585        1.125287       14.550039
 H         2.670472       14.470392       14.557809
 H         2.174281        5.138765       13.750239
 H         2.619237        6.388965       14.544131
 H         5.676511        1.413237        9.239483
 H         5.278992        2.681080       10.028069
 H         5.239482        2.725112       14.489517
 H         5.695175        1.461313       13.718313
 H         1.789399        4.789795       15.980968
 H         1.337692        3.522753       16.747253
 H         0.451382        4.843552       12.252349
 H         1.811607        4.834268       11.516825
 H         2.225498        5.097492        9.297586
 H         2.664458        6.378493       10.047638
 H         3.516464        1.179130       10.100432
 H         2.186786        1.191077       10.889542
 H         6.065818        1.096030       11.489788
 H         6.510118       14.454938       12.297678
 H         7.428720        1.194004       16.737810
 H         6.096992        1.177516       15.951848
 H         6.541466        6.374457       16.742023
 H         7.450700        5.125826       16.736025
 H         1.818042        1.406028       16.017788
 H         1.797962        1.431584       17.563540
 H         8.172772        8.743073       12.277435
 H         9.515128        8.727754       11.506367
 H        12.965411       10.836250       10.100362
 H        13.418962       12.095101       10.874012
 H        13.810420       12.426134       13.115114
 H        14.261071       13.673630       12.322436
 H        12.079505       12.171330       14.586740
 H        13.417075       12.150481       15.366484
 H         9.930580        8.461463       13.745357
 H        10.406018        7.211675       14.517438
 H         9.943719       12.437526       13.759588
 H        10.371869       13.712392       14.524801
 H        13.447530        8.722962       10.848096
 H        13.433434        8.730786        9.300901
 H        12.965880       10.047414       14.554939
 H        12.071394        8.788999       14.542395
 H         8.202823       12.132608       16.768661
 H         9.536428       12.154367       15.987827
 H         9.114479       10.843367       12.289220
 H         9.554268       12.113370       11.522868
 H        11.302766       12.439566       10.084385
 H        10.415571       13.708571       10.078407
 H        11.307498        8.446431       10.074770
 H        10.394593        7.198205       10.057185
 H        15.191397        8.475826       12.343727
 H        13.844376        8.482371       13.101131
 H        14.256430        7.191974       16.762478
 H        13.814768        8.465094       16.006792
 H        15.191159       12.375868       16.820826
 H        13.862181       12.388910       17.609051
 H         9.555670        8.770751       15.991420
 H         9.118484       10.033469       16.766302
 H         1.793520        8.768812       13.138839
 H         1.338683       10.020554       12.350556
 H         5.662804       12.146074        9.311990
 H         5.668624       12.164909       10.861865
 H         7.422097       12.370099       12.346025
 H         6.081708       12.374836       13.123539
 H         5.658195       12.140386       15.356894
 H         4.319051       12.122535       14.580583
 H         2.192780        8.485467       15.378237
 H         3.533391        8.494561       14.602948
 H         2.153060       12.375449       13.786974
 H         2.160171       12.366801       15.334261
 H         5.161773       10.091659       10.092101
 H         5.625768        8.848150        9.312267
 H         5.233796       10.028406       14.586728
 H         5.683872        8.760537       15.348865
 H         1.351536       10.830336       16.835449
 H         1.791921       12.103933       17.594585
 H         1.744953       12.124949       11.524903
 H         0.407819       12.120192       12.299804
 H         2.609115       13.686658       10.082483
 H         3.502799       12.430927       10.077260
 H         3.488103        8.501994       10.103268
 H         2.159438        8.461278       10.887608
 H         6.022104        8.495509       13.099256
 H         5.995230        8.512934       11.553584
 H         6.072019        8.485133       17.567610
 H         7.419580        8.487404       16.806067
 H         6.049997       12.429093       17.578812
 H         6.513097       13.679313       16.793015
 H         1.751087        8.714203       17.618458
 H         0.416846        8.733579       16.835119
