384
 generated by VMD
 O         9.080740        1.745636       12.312892
 O        12.988192        4.485334        9.957109
 O        14.276210        5.379930       12.254699
 O        12.971098        4.471118       14.487988
 O        10.404665        0.835602       14.538764
 O        10.397940        5.405796       14.505444
 O        12.956964        1.753983       10.079283
 O        12.992634        1.729832       14.540487
 O         9.051097        4.492380       16.703024
 O         9.089014        4.489572       12.269017
 O        10.427356        5.427909       10.081547
 O        10.380427        0.858263       10.077537
 O        14.267447        0.816704       12.300343
 O        14.295756        0.853653       16.790495
 O        14.216887        5.379700       16.758888
 O         9.102061        1.762534       16.749823
 O         9.085894        9.083970        3.337720
 O        13.003290       11.832747        1.119784
 O        14.297688       12.755897        3.355261
 O        12.974886       11.861805        5.592021
 O        10.364157        8.217536        5.620171
 O        10.399716       12.790785        5.586395
 O        12.953929        9.088787        1.077789
 O        12.971258        9.113946        5.618412
 O         9.109084       11.839075        7.833374
 O         9.092047       11.820194        3.372024
 O        10.394517       12.700823        1.129815
 O        10.362791        8.174995        1.080469
 O        14.301634        8.310452        3.305571
 O        14.252550        8.009995        7.823772
 O        14.251334       12.725564        7.855802
 O         9.072371        9.099841        7.864100
 O         1.423749        9.135429        3.316559
 O         5.205243       11.841137        1.049235
 O         6.496467       12.688746        3.323984
 O         5.210198       11.800135        5.571383
 O         2.665932        8.170291        5.603404
 O         2.633171       12.700034        5.625393
 O         5.253179        9.097533        1.061347
 O         5.243566        9.076036        5.585685
 O         1.309983       11.780507        7.855054
 O         1.365923       11.860589        3.335399
 O         2.608241       12.745655        1.056233
 O         2.663081        8.170940        1.052479
 O         6.491009        8.174937        3.320887
 O         6.497624        8.166165        7.840730
 O         6.510138       12.691360        7.812804
 O         1.294384        9.011752        7.829199
 O         1.326396        1.775545        3.369119
 O         5.278629        4.477722        1.052855
 O         6.445674        5.438313        3.337067
 O         5.283388        4.478107        5.621733
 O         2.631230        0.839756        5.618823
 O         2.731310        5.425940        5.641139
 O         5.251384        1.746346        1.112727
 O         5.233885        1.722994        5.613006
 O         1.347264        4.489476        7.791589
 O         1.504171        4.572368        3.389596
 O         2.716669        5.418334        1.025009
 O         2.652487        0.877605        1.105031
 O         6.514791        0.826537        3.365323
 O         6.516767        0.829577        7.867984
 O         6.510356        5.426126        7.872511
 O         1.345078        1.747317        7.869115
 O         9.079010        1.769328        3.329259
 O        12.797828        4.455121        0.972340
 O        13.771521        5.207039        3.318992
 O        13.052611        4.301313        5.650159
 O        10.438555        0.919582        5.547668
 O        10.237670        5.526504        5.591231
 O        12.931710        1.710205        1.081288
 O        12.948399        1.837817        5.546922
 O         9.084684        4.524909        7.879068
 O         8.995855        4.523858        3.286681
 O        10.264318        5.420619        1.005775
 O        10.346055        0.825491        1.069405
 O        14.198318        0.888624        3.382806
 O        14.270679        0.828738        7.855619
 O        14.118611        5.302472        7.659153
 O         9.099868        1.785667        7.829580
 O         1.311253        1.756858       12.333828
 O         5.199361        4.494730       10.072605
 O         6.503967        5.412446       12.291902
 O         5.197753        4.509539       14.516430
 O         2.599437        0.831599       14.570076
 O         2.620125        5.445786       14.517936
 O         5.215024        1.767271       10.087733
 O         5.182297        1.759714       14.542797
 O         1.317871        4.536037       16.761372
 O         1.319074        4.493101       12.313847
 O         2.614364        5.379470       10.077394
 O         2.638798        0.852343       10.109997
 O         6.494874        0.852130       12.317071
 O         6.508088        0.889531       16.775839
 O         6.487063        5.419996       16.741287
 O         1.330881        1.792592       16.811378
 O         9.069502        9.074876       12.343737
 O        12.975518       11.766136       10.072725
 O        14.267291       12.677904       12.303557
 O        12.973560       11.802580       14.556985
 O        10.379344        8.155410       14.573502
 O        10.379457       12.705847       14.566697
 O        12.975926        9.011471       10.055153
 O        12.964179        9.062596       14.545066
 O         9.097425       11.818663       16.821615
 O         9.081389       11.809739       12.320074
 O        10.400887       12.718057       10.076022
 O        10.361098        8.161243       10.098824
 O        14.253194        8.131738       12.314070
 O        14.223507        8.134677       16.798841
 O        14.266941       12.719586       16.789183
 O         9.061257        9.085265       16.793699
 O         1.288389        9.062958       12.309028
 O         5.203382       11.784148       10.049280
 O         6.505755       12.715623       12.282454
 O         5.228837       11.814006       14.542079
 O         2.588764        8.181399       14.550440
 O         2.637132       12.693445       14.544149
 O         5.171467        9.044922       10.076253
 O         5.171029        9.078315       14.531611
 O         1.308635       11.790786       16.772713
 O         1.324608       11.797847       12.317059
 O         2.624786       12.713773       10.090362
 O         2.582575        8.126675       10.085048
 O         6.487220        8.151389       12.316361
 O         6.493731        8.159240       16.741478
 O         6.520214       12.754973       16.758888
 O         1.285053        9.058110       16.798124
 H         8.176500        1.413784       12.343200
 H         9.527103        1.417295       13.100717
 H        12.078739        4.802837       10.014574
 H        12.950665        3.522950       10.008673
 H        15.185520        5.059212       12.250461
 H        13.863861        5.066714       11.445603
 H        12.989341        3.507970       14.483540
 H        13.432142        4.763242       13.694609
 H        10.421061       14.474233       14.544769
 H        11.322040        1.129862       14.537631
 H        11.299267        5.066543       14.480391
 H         9.958572        5.083287       13.711801
 H        13.392654        1.409899        9.293288
 H        12.049795        1.427459       10.062345
 H        13.459355        1.387143       13.770712
 H        13.468203        1.418590       15.318110
 H         9.532673        4.796146       15.925488
 H         9.084652        3.529424       16.693886
 H         8.175000        4.794191       12.279375
 H         9.061389        3.526975       12.284181
 H         9.953524        5.112610       10.859901
 H        10.396668        6.391096       10.109645
 H         9.904662        1.176232       10.853400
 H         9.912064        1.190077        9.304931
 H        13.799274        1.122057       11.516836
 H        14.259303       14.455765       12.274370
 H        15.194296        1.199651       16.830112
 H        13.841826        1.162588       17.580671
 H        13.810865        5.049028       15.950427
 H        15.130215        5.075193       16.755070
 H         9.575581        1.420797       15.982940
 H         9.555879        1.426109       17.529444
 H         9.551494        8.766806        4.117334
 H         9.559384        8.750055        2.568390
 H        12.997722       10.870338        1.084690
 H        13.445215       12.133197        0.318258
 H        15.205768       12.433917        3.334288
 H        13.866755       12.417099        2.562564
 H        12.990176       10.898755        5.589433
 H        13.452909       12.148272        4.806126
 H        11.271357        8.540709        5.638667
 H         9.928386        8.550604        6.413610
 H         9.950796       12.439245        4.809564
 H        11.300825       12.450208        5.560420
 H        13.381949        8.741220        0.286688
 H        12.048193        8.760389        1.066261
 H        13.441092        8.735516        6.368265
 H        13.436815        8.817241        4.831535
 H         9.578334       12.161491        8.610865
 H         9.578257       12.176301        7.063809
 H         8.173931       12.112034        3.351965
 H         9.071418       10.857012        3.364879
 H         9.961601       12.374805        1.926462
 H        11.305785       12.390583        1.154625
 H         9.894688        8.492169        0.299986
 H        10.323633        7.214307        1.042864
 H        13.819304        8.563665        2.505061
 H        14.337227        7.363129        3.307585
 H        15.154945        8.349022        7.834331
 H        13.821612        8.353911        8.614601
 H        13.792251       12.404432        7.071831
 H        13.781587       12.373551        8.620511
 H         8.156072        8.801598        7.854580
 H         9.054896       10.062816        7.854550
 H         0.508761        8.844891        3.296646
 H         1.840888        8.780471        2.524140
 H         5.645631       12.183680        0.264534
 H         4.298615       12.164502        1.024749
 H         6.026631       12.379254        2.542454
 H         6.018835       12.357786        4.092387
 H         4.302797       12.122291        5.613007
 H         5.657335       12.129080        6.358506
 H         2.238513        8.490328        4.803236
 H         3.567191        8.511721        5.586447
 H         2.160656       12.395053        6.407098
 H         2.618337       13.662535        5.648679
 H         5.248403       10.060131        1.031986
 H         5.695877        8.794433        0.261789
 H         5.246722       10.039615        5.562293
 H         5.686372        8.778101        4.783830
 H         0.408185       12.114567        7.875144
 H         1.747908       12.113488        8.644942
 H         1.401247       10.897085        3.339886
 H         1.814851       12.149312        4.136720
 H         2.127493       12.401283        0.296357
 H         2.158369       12.422989        1.844755
 H         2.707377        7.209381        1.049979
 H         3.572987        8.486279        1.048129
 H         6.069198        8.511918        2.522559
 H         7.400144        8.491274        3.306746
 H         6.007685        8.479896        8.608324
 H         6.038167        8.493387        7.059360
 H         7.429549       12.404305        7.820569
 H         6.527450       13.653866        7.837046
 H         1.770460        8.731894        7.039523
 H         1.296817        9.973959        7.821104
 H         1.335157        2.735936        3.376467
 H         0.404379        1.506652        3.367601
 H         5.688443        4.794981        1.864412
 H         5.284092        3.514915        1.093216
 H         6.434820        6.401814        3.353122
 H         6.021626        5.132019        4.145774
 H         5.734665        4.772684        6.420253
 H         5.276621        3.515364        5.637487
 H         2.161661        1.172904        4.848186
 H         2.163975        1.174139        6.391336
 H         2.737658        6.390201        5.626680
 H         3.648767        5.128503        5.649671
 H         5.674977        1.407525        1.908594
 H         4.341176        1.430995        1.129689
 H         4.324495        1.407343        5.632911
 H         5.661549        1.390427        6.409136
 H         0.446441        4.799313        7.716372
 H         1.817128        4.826022        7.017373
 H         1.971308        4.862490        4.188097
 H         0.677248        5.035994        3.422153
 H         2.320435        5.112494        1.844115
 H         3.617932        5.075974        1.023216
 H         2.621168       14.516232        1.099694
 H         2.184942        1.164862        1.894278
 H         6.057687        1.115656        4.162736
 H         6.500752       14.465212        3.371116
 H         7.415071        1.173796        7.873821
 H         6.081685        1.166813        8.658642
 H         7.427968        5.135112        7.894200
 H         6.522377        6.389511        7.855654
 H         1.325918        2.709580        7.840478
 H         0.431035        1.449669        7.864614
 H         9.032333        2.730692        3.311075
 H         8.168660        1.451570        3.349022
 H        11.896393        4.798483        0.921684
 H        13.287225        4.802437        0.217100
 H        13.380517        4.650264        4.798400
 H        13.397903        4.909749        2.462769
 H        13.029964        3.265498        5.627625
 H        13.525910        4.716985        6.464781
 H        10.417806       14.555991        5.545099
 H         9.953900        1.206436        4.763725
 H        10.294292        6.494456        5.595584
 H        11.133137        5.213322        5.609364
 H        12.871303        2.668252        1.027328
 H        12.022509        1.389127        1.070615
 H        13.396264        1.479823        4.758483
 H        12.033739        1.501608        5.533020
 H         9.575430        4.856722        8.639929
 H         9.495361        4.899945        7.095437
 H         8.087480        4.851239        3.305298
 H         9.416727        4.881120        4.070875
 H         9.799373        5.096154        1.783344
 H         9.793525        5.090216        0.231569
 H        10.340416       14.464469        1.109860
 H         9.897328        1.139493        1.860823
 H        14.234345       14.525880        3.362217
 H        13.758068        1.163219        2.569778
 H        14.261712       14.463817        7.845004
 H        13.824785        1.114658        7.060167
 H        14.156246        6.273111        7.687050
 H        13.704005        5.013043        8.490325
 H         9.557660        1.499913        7.034537
 H         9.105302        2.748796        7.820465
 H         0.397860        1.452888       12.320448
 H         1.289002        2.719956       12.334705
 H         5.670041        4.834674        9.303338
 H         5.663685        4.829997       10.847829
 H         6.491158        6.375428       12.318507
 H         6.046793        5.108585       13.084035
 H         5.194532        3.546838       14.539474
 H         5.651702        4.802796       15.314663
 H         2.137667        1.174281       15.342288
 H         2.130991        1.163692       13.796788
 H         2.639254        6.408937       14.526653
 H         3.534606        5.143600       14.518123
 H         5.188926        2.730780       10.077150
 H         4.300062        1.465275       10.092670
 H         5.626467        1.442050       15.336295
 H         4.280435        1.423783       14.574086
 H         1.783041        4.863801       15.984399
 H         1.802600        4.863354       17.525887
 H         1.783373        4.841457       13.083587
 H         1.795207        4.808828       11.537906
 H         2.183281        5.056364        9.281048
 H         3.523448        5.059989       10.052251
 H         2.162305        1.177208       10.881609
 H         2.167702        1.179463        9.336547
 H         6.034272        1.194907       11.542955
 H         6.016428        1.175370       13.088313
 H         7.412873        1.219849       16.780287
 H         6.090522        1.202265       17.585442
 H         6.079324        5.082391       17.546453
 H         7.391298        5.087655       16.732376
 H         1.802483        1.504176       17.599539
 H         1.346312        2.755874       16.812239
 H         9.534247        8.775554       13.132371
 H         9.085299       10.038005       12.358090
 H        12.985063       10.803119       10.081381
 H        13.438015       12.055123       10.867262
 H        15.175944       12.358540       12.333325
 H        13.832151       12.364838       13.103951
 H        13.407163       12.138512       15.349235
 H        12.066763       12.125669       14.576632
 H        11.293895        8.458051       14.565512
 H        10.406706        7.193384       14.554830
 H         9.903389       12.381169       13.795107
 H         9.912971       12.381392       15.344535
 H        12.062655        8.708755       10.090934
 H        13.405775        8.688860       10.854776
 H        13.420392        8.762490       13.751827
 H        12.977785       10.025619       14.530828
 H         9.091521       10.855220       16.833981
 H         9.559389       12.103248       17.617022
 H         8.177160       12.141311       12.282092
 H         9.528256       12.134140       11.531877
 H        11.312464       12.407823       10.082016
 H        10.427932       13.680260       10.080755
 H         9.897178        8.495983       10.873904
 H         9.891753        8.498106        9.328142
 H        14.285626        7.170032       12.305855
 H        15.166034        8.441070       12.307571
 H        13.786053        8.444361       15.998343
 H        14.207500        7.172840       16.767883
 H        15.179029       12.408978       16.780247
 H        14.304747       13.682104       16.788834
 H         8.157343        8.753007       16.755096
 H         9.511889        8.750652       16.011141
 H         1.311572       10.025891       12.285778
 H         1.749181        8.753710       11.521410
 H         5.198185       10.820912       10.043523
 H         5.665092       12.066740        9.253006
 H         6.042645       12.409245       11.495629
 H         6.480547       13.678423       12.267329
 H         5.691884       12.135907       13.761752
 H         5.705373       12.151162       15.308732
 H         2.109802        8.490478       15.326902
 H         2.111720        8.503499       13.777999
 H         3.557776       12.409977       14.545865
 H         2.642974       13.656425       14.557011
 H         4.269039        8.709727       10.101059
 H         5.614800        8.719862       10.866962
 H         5.166810       10.041534       14.539610
 H         4.250485        8.794379       14.538196
 H         1.309297       10.827343       16.764967
 H         1.780704       12.077107       15.983951
 H         1.794091       12.132719       11.545033
 H         1.802858       12.119525       13.089297
 H         3.537567       12.406676       10.071838
 H         2.654966       13.676183       10.095383
 H         2.579801        7.164095       10.067423
 H         2.131752        8.417618        9.284681
 H         7.389650        8.486891       12.344221
 H         6.041963        8.489060       13.101071
 H         6.478991        7.196194       16.729155
 H         6.020264        8.456449       15.956954
 H         6.544765       13.717959       16.762411
 H         7.433824       12.451644       16.789589
 H         1.745219        8.733031       17.579744
 H         0.385728        8.717426       16.834505
