384
 generated by VMD
 O         9.070919        1.764849       12.305150
 O        12.984163        4.518171       10.090278
 O        14.279792        5.417247       12.327256
 O        12.981721        4.509913       14.561528
 O        10.379448        0.853711       14.512869
 O        10.394452        5.437701       14.534916
 O        12.986580        1.775544       10.103483
 O        12.968439        1.744581       14.607992
 O         9.102098        4.497425       16.755581
 O         9.085159        4.500856       12.314093
 O        10.406305        5.431184       10.095782
 O        10.387826        0.863333       10.085225
 O        14.265832        0.855960       12.376428
 O        14.136374        0.955513       16.912569
 O        14.282518        5.456876       16.762602
 O         9.164913        1.763609       16.761906
 O         9.068240        9.109344        3.349366
 O        12.908814       11.728424        1.077227
 O        14.295737       12.574770        3.286862
 O        12.951195       11.817412        5.590000
 O        10.366366        8.179599        5.593180
 O        10.368594       12.753464        5.572457
 O        12.959697        9.006872        1.113850
 O        12.965221        9.072159        5.597853
 O         9.122710       11.813111        7.828790
 O         9.078196       11.853916        3.310580
 O        10.374146       12.740499        1.081179
 O        10.335712        8.213931        1.088348
 O        14.305542        8.188063        3.358932
 O        14.252477        8.174915        7.854167
 O        14.258106       12.736791        7.820807
 O         9.069453        9.072381        7.836942
 O         1.389992        8.996745        3.353671
 O         5.235581       11.790720        1.069827
 O         6.487605       12.722297        3.319256
 O         5.244071       11.764675        5.570050
 O         2.644263        8.090474        5.622894
 O         2.649683       12.675751        5.570092
 O         5.252172        9.045677        1.054898
 O         5.218536        9.019735        5.599419
 O         1.313973       11.791699        7.801260
 O         1.416665       11.720114        3.307869
 O         2.675787       12.695322        1.050570
 O         2.660918        8.140097        1.092207
 O         6.500128        8.162014        3.338984
 O         6.502229        8.115029        7.852625
 O         6.527431       12.687281        7.820244
 O         1.316025        9.044170        7.845265
 O         1.507433        1.722116        3.245712
 O         5.239755        4.545601        1.096065
 O         6.497888        5.421093        3.372225
 O         5.238850        4.457191        5.600893
 O         2.668554        0.814134        5.603274
 O         2.643233        5.349005        5.606112
 O         5.320021        1.806460        1.082830
 O         5.252514        1.712373        5.611328
 O         1.345823        4.479631        7.862153
 O         1.352293        4.502838        3.340999
 O         2.633186        5.407660        1.085123
 O         2.735865        0.851369        0.991518
 O         6.539483        0.857230        3.354412
 O         6.494599        0.829048        7.889150
 O         6.518945        5.374186        7.838332
 O         1.330332        1.736400        7.837669
 O         9.090605        1.763790        3.260825
 O        12.900226        4.663412        1.078706
 O        14.305457        5.444427        3.370361
 O        12.988630        4.610856        5.641557
 O        10.278867        0.903237        5.611360
 O        10.382894        5.439790        5.598578
 O        12.779649        1.605495        0.964386
 O        12.810489        1.902942        5.720594
 O         9.118055        4.524374        7.851805
 O         9.107570        4.525932        3.337884
 O        10.324253        5.490083        1.059471
 O        10.474257        0.785327        0.901291
 O        13.648307        1.014526        3.350989
 O        14.239232        0.891972        7.828374
 O        14.307810        5.443875        7.874157
 O         9.055871        1.787211        7.884440
 O         1.317116        1.744134       12.329083
 O         5.217642        4.478307       10.079640
 O         6.507172        5.414550       12.314728
 O         5.210437        4.490377       14.550160
 O         2.595042        0.848948       14.573837
 O         2.609389        5.387815       14.565716
 O         5.171956        1.737282       10.113795
 O         5.194468        1.754326       14.580826
 O         1.298610        4.491449       16.796362
 O         1.321805        4.483739       12.319356
 O         2.637058        5.414518       10.098595
 O         2.590262        0.797891       10.094978
 O         6.476937        0.845188       12.348642
 O         6.535495        0.869586       16.803051
 O         6.521445        5.407692       16.775337
 O         1.218123        1.723744       16.796255
 O         9.050467        9.076501       12.295819
 O        12.986043       11.810046       10.068822
 O        14.277968       12.710835       12.313842
 O        12.953894       11.808123       14.522894
 O        10.389009        8.163612       14.496489
 O        10.370485       12.726017       14.528831
 O        12.950537        9.068024       10.084630
 O        12.979438        9.071750       14.525701
 O         9.072436       11.820319       16.764843
 O         9.057293       11.816311       12.291653
 O        10.397313       12.725619       10.080344
 O        10.363876        8.169981       10.083438
 O        14.266069        8.148725       12.304562
 O        14.258106        8.186581       16.784029
 O        14.217739       12.664574       16.779850
 O         9.106294        9.078678       16.738159
 O         1.320347        9.059989       12.331182
 O         5.212822       11.785404       10.040782
 O         6.476073       12.712549       12.301454
 O         5.189175       11.821563       14.549907
 O         2.600482        8.143483       14.576197
 O         2.602834       12.720144       14.553923
 O         5.191071        9.056111       10.069535
 O         5.186007        9.077453       14.528308
 O         1.317937       11.787581       16.774164
 O         1.322390       11.793653       12.305406
 O         2.611331       12.658561       10.051461
 O         2.612986        8.156581       10.082609
 O         6.480114        8.157827       12.299480
 O         6.529463        8.139267       16.733892
 O         6.500836       12.730135       16.782721
 O         1.325384        9.052217       16.819157
 H         9.532290        1.469820       11.512288
 H         9.084746        2.728234       12.290664
 H        12.079140        4.847882       10.113975
 H        13.419272        4.845235       10.884962
 H        15.182204        5.079779       12.339553
 H        13.847325        5.087148       13.121648
 H        12.984586        3.548990       14.592728
 H        13.443604        4.816150       15.350020
 H         9.917411        1.154522       13.721043
 H        10.361100       14.491728       14.499887
 H        11.309011        5.137285       14.539539
 H        10.416642        6.401383       14.517551
 H        13.432748        1.475635       10.901540
 H        12.995671        2.738647       10.124282
 H        13.426373        1.418183       13.823135
 H        12.061271        1.424110       14.547866
 H         8.191231        4.813068       16.735399
 H         9.535698        4.844175       15.967452
 H         9.525146        4.833251       13.103320
 H         8.181305        4.834612       12.334681
 H        10.379007        6.394059       10.114930
 H         9.932094        5.124637       10.876051
 H         9.951573        1.194278        9.292387
 H        11.292158        1.193054       10.068609
 H        14.289847       14.495396       12.351566
 H        15.183100        1.152145       12.360605
 H        15.066388        1.232406       16.901234
 H        13.737221        1.253917       16.079199
 H        15.182775        5.112385       16.804102
 H        13.836037        5.180091       17.566317
 H         9.580479        1.470199       15.940674
 H         9.155302        2.728762       16.745495
 H         8.167391        8.767177        3.367076
 H         9.505500        8.776306        4.139999
 H        13.376432       12.022909        0.289012
 H        12.930326       10.763488        1.069209
 H        14.406712       13.512942        3.190323
 H        13.823375       12.286597        2.494389
 H        13.393693       12.116299        4.790963
 H        12.051639       12.159478        5.553858
 H        10.384986        7.216754        5.591902
 H        11.284152        8.471728        5.588610
 H         9.908182       12.456583        4.780552
 H        10.335549       13.714955        5.566063
 H        13.428854        8.694221        0.332760
 H        13.456851        8.706477        1.882843
 H        12.966125       10.034949        5.582471
 H        13.440227        8.785185        4.810969
 H         9.582009       12.149678        7.052431
 H         9.595085       12.140939        8.601353
 H         8.158791       12.144579        3.313557
 H         9.057923       10.890648        3.326680
 H        11.264525       12.366323        1.096150
 H         9.928225       12.427552        1.878953
 H        11.254585        8.501236        1.123698
 H         9.907169        8.544600        1.885552
 H        14.326646        7.225866        3.375464
 H        15.225751        8.474210        3.355121
 H        13.774413        8.506220        8.622369
 H        13.784745        8.493999        7.075138
 H        14.241546       13.698971        7.801156
 H        13.798817       12.436708        7.029470
 H         9.529965        8.768213        7.047257
 H         9.094612       10.034799        7.813614
 H         1.863201        8.673558        2.579118
 H         1.848852        8.661519        4.130821
 H         4.314378       12.077472        1.055647
 H         5.226377       10.827826        1.058374
 H         6.020556       12.387164        2.545716
 H         6.033169       12.373504        4.094069
 H         5.247763       10.802279        5.603321
 H         5.700134       12.071239        6.360693
 H         2.172128        8.398030        6.403360
 H         2.631443        7.127746        5.646731
 H         2.229263       12.342735        4.769809
 H         3.555070       12.348097        5.560709
 H         5.725980        8.717149        0.284438
 H         5.712946        8.721554        1.835732
 H         5.656684        8.688905        6.390706
 H         4.313909        8.689491        5.628083
 H         1.754684       12.112865        7.007157
 H         0.417064       12.140738        7.784503
 H         1.412762       10.755823        3.325067
 H         0.495060       11.987582        3.298176
 H         2.178500       12.383559        0.287512
 H         2.211570       12.369731        1.828933
 H         2.680487        7.177056        1.079124
 H         3.576122        8.438457        1.068244
 H         6.038150        8.461165        4.130185
 H         6.489613        7.199532        3.369230
 H         7.399741        8.464514        7.866793
 H         6.060121        8.451286        8.639400
 H         6.537426       13.650145        7.837381
 H         7.447393       12.401774        7.825502
 H         1.298376       10.006727        7.819495
 H         0.397059        8.755634        7.842702
 H         0.651661        1.316837        3.174716
 H         1.974544        1.430035        2.448788
 H         4.325411        4.848310        1.110681
 H         5.657073        4.875362        1.898924
 H         6.069337        5.071952        4.161966
 H         7.404181        5.099088        3.384953
 H         5.693745        4.760460        6.394435
 H         5.253365        3.494377        5.622497
 H         2.265392        1.111958        4.783795
 H         2.648879       14.452615        5.576523
 H         3.549068        5.022437        5.628077
 H         2.208358        5.022504        6.401013
 H         5.299260        2.769343        1.112629
 H         5.738140        1.506382        1.896315
 H         5.673541        1.389641        6.415412
 H         4.346213        1.384456        5.625161
 H         1.783894        4.816332        8.650908
 H         0.447011        4.824680        7.878659
 H         1.808577        4.785454        4.141894
 H         1.393185        3.543159        3.328704
 H         2.156402        5.072320        0.319164
 H         2.166290        5.088428        1.864532
 H         2.743509       14.490517        1.017913
 H         3.651342        1.147745        0.989806
 H         6.501685       14.496082        3.354770
 H         6.086528        1.147566        4.154830
 H         7.388618        1.186177        7.919158
 H         6.042314        1.146128        8.678149
 H         7.441299        5.096656        7.846590
 H         6.524680        6.337608        7.845990
 H         1.352944        2.699079        7.826317
 H         1.788206        1.437779        7.045641
 H         8.184101        1.427427        3.267855
 H         9.511482        1.414401        2.478908
 H        12.843884        3.716583        1.047784
 H        11.985160        4.980595        1.072605
 H        15.201694        5.092278        3.327027
 H        13.851800        5.157784        2.575416
 H        13.467882        4.934321        6.413748
 H        13.474264        4.903238        4.863768
 H        11.165716        1.275359        5.654454
 H         9.885127        1.221511        4.794488
 H        11.297564        5.138658        5.584017
 H         9.962662        5.102879        4.801082
 H        11.803340        1.232759        0.903713
 H        13.368656        1.322410        0.177487
 H        12.882881        2.865311        5.738871
 H        13.334077        1.561282        6.455651
 H         9.590398        4.856761        8.622630
 H         9.580088        4.853659        7.073661
 H         9.114491        3.566361        3.284959
 H         9.528823        4.849588        2.535329
 H        10.293875        6.454476        1.049085
 H         9.883928        5.182038        0.259822
 H        10.410890       14.414823        0.938091
 H         9.974454        1.109169        0.129050
 H        13.302587        1.337455        4.206346
 H        13.163795        1.366785        1.830276
 H        15.152998        1.196060        7.839016
 H        13.832871        1.203761        8.644129
 H        13.836000        5.134546        8.655119
 H        14.284696        6.407007        7.898821
 H         9.083825        2.749957        7.859812
 H         9.467960        1.482945        7.068900
 H         1.774592        1.394099       11.556798
 H         1.792727        1.424483       13.103898
 H         5.205271        3.515235       10.072974
 H         5.679836        4.758709        9.282659
 H         6.481436        6.376961       12.285850
 H         6.054235        5.100558       11.524549
 H         5.678464        4.824581       15.322637
 H         5.679068        4.821920       13.776863
 H         2.619582       14.487604       14.568521
 H         3.509233        1.150158       14.592189
 H         3.516256        5.065580       14.540125
 H         2.176606        5.062383       13.769026
 H         4.271171        1.396975       10.125371
 H         5.604570        1.413772       10.911174
 H         5.206733        2.717819       14.588071
 H         5.662627        1.466099       15.371117
 H         1.286702        3.529569       16.776161
 H         1.767257        4.780823       16.005138
 H         1.332819        3.520896       12.293523
 H         1.786432        4.790070       11.533081
 H         2.654932        6.377481       10.096519
 H         3.552484        5.116046       10.091029
 H         2.146146        1.108001        9.298581
 H         2.581996       14.437437       10.059267
 H         7.379895        1.178426       12.352913
 H         6.050310        1.178292       13.146148
 H         6.125044        1.217272       17.604683
 H         7.441695        1.186789       16.799669
 H         6.068172        5.126071       17.577450
 H         6.513545        6.371334       16.777386
 H         1.684829        1.401297       16.016729
 H         1.731286        1.416747       17.551838
 H         9.026547       10.039446       12.295165
 H         8.135322        8.773442       12.299661
 H        12.083735       12.146351       10.059255
 H        13.413477       12.140582        9.271258
 H        15.182049       12.377542       12.293398
 H        13.846552       12.390636       11.514274
 H        12.974194       10.844685       14.503995
 H        13.423281       12.108097       13.735890
 H         9.932142        8.494944       15.276967
 H         9.904927        8.493915       13.731474
 H        11.272443       12.387102       14.536968
 H         9.939004       12.394481       15.323356
 H        12.939785       10.031198       10.084003
 H        12.031519        8.778764       10.086421
 H        13.420711        8.734025       13.737900
 H        12.073106        8.748207       14.493416
 H         8.165169       12.147147       16.784412
 H         9.498771       12.140331       17.564590
 H         9.494436       12.138795       13.086270
 H         8.153093       12.149380       12.314949
 H        10.378800       13.688068       10.104939
 H         9.922062       12.419807       10.860305
 H         9.896324        8.489944        9.304489
 H         9.882867        8.500717       10.850249
 H        14.262371        7.185608       12.286084
 H        13.805219        8.448007       11.513407
 H        13.808125        8.495965       15.990334
 H        14.261800        7.224765       16.738472
 H        14.197901       13.619477       16.805431
 H        13.769176       12.395517       15.968431
 H         9.542005        8.792171       17.547924
 H         9.100788       10.041288       16.759975
 H         1.749874        8.728371       13.127043
 H         0.415426        8.731283       12.344530
 H         5.694017       12.110057        9.271611
 H         5.668343       12.123631       10.818558
 H         6.017658       12.408540       13.092433
 H         6.461582       13.675362       12.331336
 H         5.626982       12.151184       15.341692
 H         4.283903       12.150578       14.574490
 H         2.148849        8.436810       15.375169
 H         2.597295        7.181060       14.592665
 H         2.142722       12.389497       13.775170
 H         2.129013       12.380979       15.321822
 H         4.272906        8.763515       10.067832
 H         5.176218       10.019485       10.056271
 H         4.272809        8.772342       14.550556
 H         5.159485       10.040160       14.538537
 H         1.304574       10.824227       16.793989
 H         0.401581       12.076638       16.791199
 H         1.783284       12.078575       11.508820
 H         1.334184       10.830331       12.300732
 H         3.521029       12.344635       10.020477
 H         2.175422       12.336782        9.254795
 H         2.135895        8.480915        9.310511
 H         2.144423        8.481369       10.858557
 H         6.004236        8.488186       13.069249
 H         6.010054        8.485255       11.524097
 H         7.429975        8.478633       16.702654
 H         6.074175        8.477124       15.955308
 H         6.052064       12.420084       17.577890
 H         6.493573       13.692492       16.813250
 H         1.760354        8.727833       17.614895
 H         0.416002        8.736215       16.840584
