384
 generated by VMD
 O         9.111071        1.735332       12.322017
 O        12.871709        4.551033        9.988138
 O        14.207685        5.420958       12.245022
 O        12.957963        4.523693       14.509326
 O        10.420144        0.840276       14.546695
 O        10.357097        5.405233       14.532866
 O        12.943247        1.792735       10.057539
 O        13.003034        1.775895       14.552615
 O         9.055700        4.479292       16.757156
 O         9.111496        4.452902       12.252365
 O        10.315712        5.448000        9.836032
 O        10.367794        0.780143       10.085371
 O        14.260781        0.879525       12.288963
 O        14.278797        0.855606       16.797773
 O        14.266229        5.429286       16.738600
 O         9.093438        1.737797       16.765100
 O         9.098543        9.056449        3.338617
 O        12.992122       11.818644        1.110506
 O        14.290171       12.740779        3.344551
 O        13.017239       11.900887        5.605715
 O        10.475338        8.395378        5.644680
 O        10.367746       12.705214        5.556428
 O        12.976439        9.070491        1.078564
 O        13.134225        9.200506        5.598397
 O         9.078363       11.877480        7.834270
 O         9.070950       11.790905        3.309392
 O        10.389422       12.672035        1.084845
 O        10.383625        8.140388        1.079383
 O        14.321769        8.189654        3.302122
 O        14.345037        8.185879        7.877069
 O        14.289418       12.740380        7.870214
 O         9.061585        9.152505        7.912566
 O         1.357266        9.068624        3.302763
 O         5.178072       11.801902        1.081000
 O         6.463697       12.676684        3.336186
 O         5.220421       11.747812        5.587781
 O         2.610588        8.159918        5.557687
 O         2.647447       12.695330        5.585863
 O         5.241374        9.062366        1.099569
 O         5.200622        9.020821        5.615525
 O         1.350900       11.835077        7.841420
 O         1.337324       11.807857        3.353583
 O         2.598888       12.743469        1.106592
 O         2.646497        8.156374        1.055400
 O         6.495633        8.128180        3.356674
 O         6.456266        8.132151        7.869421
 O         6.456753       12.695751        7.846031
 O         1.407752        9.091541        7.845334
 O         1.340779        1.758262        3.387553
 O         5.149310        4.502794        1.037991
 O         6.367951        5.409488        3.312402
 O         5.245555        4.507046        5.605905
 O         2.634610        0.822630        5.626905
 O         2.629339        5.411186        5.593002
 O         5.205729        1.770778        1.055591
 O         5.230217        1.743400        5.561247
 O         1.453688        4.468344        7.861001
 O         1.418614        4.496687        3.304947
 O         2.597576        5.422366        1.032434
 O         2.613521        0.882443        1.125889
 O         6.445856        0.822668        3.301100
 O         6.438600        0.827644        7.824825
 O         6.610109        5.481344        7.983580
 O         1.353311        1.739467        7.862889
 O         9.056923        1.613040        3.223825
 O        12.989204        4.501441        1.054466
 O        14.378955        5.440920        3.216312
 O        13.247356        4.525990        5.548868
 O        10.400428        0.851076        5.526788
 O         9.647523        5.034623        5.490510
 O        12.973001        1.757594        1.091572
 O        12.972434        1.784371        5.594814
 O         8.932003        4.676103        7.917529
 O         8.834007        4.315722        3.042713
 O        10.385193        5.375506        1.036596
 O        10.412766        0.786781        1.032948
 O        14.275211        0.879530        3.353022
 O        14.275236        0.880510        7.853334
 O        14.425148        5.413641        7.906499
 O         9.083393        1.645181        7.881581
 O         1.317851        1.769601       12.320464
 O         5.293077        4.519558       10.085795
 O         6.521409        5.364894       12.341767
 O         5.165765        4.522601       14.543854
 O         2.584202        0.853602       14.567227
 O         2.582963        5.439186       14.506016
 O         5.204308        1.794954       10.076053
 O         5.164816        1.783998       14.511278
 O         1.298357        4.505952       16.754284
 O         1.272884        4.508626       12.269273
 O         2.685675        5.430071       10.103290
 O         2.645218        0.854638       10.111513
 O         6.512176        0.869090       12.326352
 O         6.488143        0.869246       16.743395
 O         6.472405        5.407026       16.770777
 O         1.329236        1.767858       16.820341
 O         9.086547        9.026794       12.326589
 O        12.969228       11.787197       10.073609
 O        14.226988       12.737342       12.319196
 O        12.969145       11.808958       14.577926
 O        10.387556        8.145462       14.558366
 O        10.372453       12.710441       14.590197
 O        12.960637        9.055588       10.058438
 O        12.968796        9.058963       14.576902
 O         9.049297       11.790218       16.807602
 O         9.098436       11.780691       12.336839
 O        10.396823       12.670592       10.097954
 O        10.387644        8.124032       10.066675
 O        14.233658        8.160954       12.320170
 O        14.283012        8.165583       16.794477
 O        14.265650       12.720467       16.813782
 O         9.046853        9.058304       16.784657
 O         1.265249        9.103178       12.281554
 O         5.206931       11.786812       10.112514
 O         6.522031       12.715762       12.335546
 O         5.181655       11.788437       14.548550
 O         2.562601        8.175138       14.500369
 O         2.593639       12.715368       14.572456
 O         5.191656        9.046388       10.103333
 O         5.158967        9.043714       14.518579
 O         1.319310       11.820494       16.817778
 O         1.286339       11.844946       12.321153
 O         2.633257       12.725413       10.102282
 O         2.614796        8.156599       10.103026
 O         6.507931        8.113689       12.312203
 O         6.467036        8.149301       16.755590
 O         6.454405       12.722869       16.792150
 O         1.331116        9.082976       16.777718
 H         8.200271        1.422800       12.358300
 H         9.555241        1.411153       13.114283
 H        12.898464        3.588214        9.985949
 H        13.398664        4.840281        9.231841
 H        13.761896        5.109344       11.450798
 H        15.109166        5.084106       12.214576
 H        12.048492        4.837960       14.499475
 H        13.375793        4.847836       13.704241
 H        10.438520       14.478938       14.561812
 H        11.334822        1.142446       14.547579
 H         9.903781        5.072576       13.754307
 H         9.884289        5.066275       15.301471
 H        13.394766        1.466970        9.270061
 H        12.054030        1.428262       10.038155
 H        13.449244        1.483883       13.750331
 H        12.995451        2.738518       14.528136
 H         9.536418        4.786788       17.533918
 H         9.080884        3.516716       16.782354
 H         9.142488        3.488126       12.243649
 H         9.536595        4.758314       11.451996
 H        11.233466        5.129039        9.834786
 H        10.365190        6.417322        9.907907
 H         9.923164        1.080212       10.885262
 H        10.382368       14.417306       10.118453
 H        14.230038       14.519092       12.273042
 H        13.798514        1.185014       11.500986
 H        15.184822        1.182160       16.786451
 H        13.852812        1.188696       16.000847
 H        14.256817        6.392451       16.736980
 H        13.799936        5.141661       15.946887
 H         9.558409        1.393543       17.535316
 H         9.575460        1.418300       15.994751
 H         9.553298        8.772043        4.137666
 H         8.203043        8.708519        3.384704
 H        12.081813       12.131599        1.131526
 H        13.422266       12.147178        1.907647
 H        14.287410       13.703831        3.355342
 H        13.832644       12.460617        4.145669
 H        12.087123       12.145354        5.595784
 H        13.052100       10.935689        5.613718
 H        10.726311        7.480875        5.780531
 H        10.001873        8.648328        6.445887
 H         9.918989       12.395454        4.762815
 H        10.380002       13.666110        5.510018
 H        12.062656        8.767009        1.078753
 H        12.952145       10.032876        1.087064
 H        12.212447        8.931040        5.628414
 H        13.541749        8.819682        6.383965
 H         8.170310       12.196404        7.815173
 H         9.503235       12.176168        7.022696
 H         9.056866       10.827273        3.321983
 H         8.153559       12.081828        3.317685
 H         9.912808       12.344689        0.314447
 H         9.910067       12.355710        1.858976
 H         9.898635        8.472952        0.318129
 H         9.926957        8.462934        1.862873
 H        13.818911        8.510156        2.546169
 H        13.880340        8.517904        4.091840
 H        14.363484        7.223691        7.867308
 H        15.261376        8.478999        7.875698
 H        13.852822       12.440820        7.064664
 H        15.193418       12.410949        7.836722
 H         9.031013       10.115946        7.897721
 H         8.154926        8.839647        7.879059
 H         1.792176        8.741574        2.508674
 H         0.447171        8.749675        3.273974
 H         5.609881       12.145081        0.290847
 H         4.274228       12.134202        1.068748
 H         6.007751       12.375100        2.542793
 H         6.438725       13.638755        3.310977
 H         5.677608       12.087522        6.364008
 H         5.686051       12.081540        4.813011
 H         2.591006        7.197611        5.551568
 H         2.158238        8.453708        4.758925
 H         2.197437       12.369623        4.798194
 H         3.544970       12.347767        5.559794
 H         5.683472        8.765820        0.297476
 H         5.230642       10.025072        1.070933
 H         5.193271        9.984734        5.609972
 H         4.279613        8.736646        5.591683
 H         1.821291       12.162740        7.067812
 H         1.816752       12.165846        8.616102
 H         1.317312       10.844780        3.330691
 H         0.421647       12.107699        3.353565
 H         2.595846       13.706163        1.137232
 H         2.153515       12.437699        1.904338
 H         2.653249        7.193219        1.048558
 H         3.564975        8.444090        1.069767
 H         6.043635        8.478904        2.581723
 H         6.024958        8.455737        4.130183
 H         5.985155        8.481936        8.635632
 H         5.993680        8.448694        7.083252
 H         6.017318       12.382532        8.643968
 H         6.413594       13.656887        7.865089
 H         1.830974        8.791696        7.034409
 H         1.402859       10.054217        7.821143
 H         1.763140        1.416220        4.182018
 H         0.429017        1.447380        3.397641
 H         4.239240        4.822747        1.025527
 H         5.542770        4.844371        1.847317
 H         7.252904        5.051239        3.188563
 H         6.444414        6.371388        3.315342
 H         5.674592        4.852769        4.812036
 H         5.722493        4.850243        6.357739
 H         3.546242        1.127754        5.599186
 H         2.664167       14.461505        5.608163
 H         2.205405        5.073919        6.390959
 H         3.535344        5.093909        5.616870
 H         5.652962        1.471847        0.257007
 H         5.202231        2.733991        1.028753
 H         5.238795        2.704252        5.546680
 H         5.665899        1.445690        4.753778
 H         1.906264        4.770772        8.654594
 H         1.432175        3.505471        7.889081
 H         1.843218        4.802797        4.112894
 H         1.394423        3.535241        3.355062
 H         2.110578        5.094472        0.268645
 H         2.161806        5.078312        1.820457
 H         3.521353        1.203212        1.128903
 H         2.194496        1.205395        1.930900
 H         6.019893        1.161393        2.505648
 H         7.367864        1.097364        3.255392
 H         7.357376        1.106739        7.815419
 H         6.036116        1.155267        7.011973
 H         6.526567        6.452324        7.959599
 H         6.105475        5.150845        8.747456
 H         1.820349        1.402839        7.090557
 H         1.815313        1.402621        8.637504
 H         9.542359        1.357687        4.013708
 H         9.556734        1.284187        2.466374
 H        13.443408        4.830190        0.272453
 H        13.479582        4.836898        1.813816
 H        15.296946        5.153485        3.231516
 H        14.378646        6.402882        3.255806
 H        13.637073        4.853796        4.727885
 H        12.463192        5.058073        5.684483
 H         9.967490        1.137746        6.332389
 H        11.300220        1.197578        5.563599
 H         9.266030        4.843110        7.007845
 H         9.307417        4.768729        4.618488
 H        12.981856        2.720936        1.067441
 H        13.441832        1.461512        0.304191
 H        13.031662        2.745811        5.596436
 H        13.430939        1.483468        6.386166
 H         7.963646        5.035581        7.989529
 H         9.547743        5.037668        8.652254
 H         9.408205        4.669164        2.354217
 H         8.916412        3.355399        3.034853
 H        10.398511        6.337627        1.069400
 H        11.304822        5.089152        1.062658
 H        11.322309        1.104875        1.052724
 H        10.444341       14.425129        1.039952
 H        13.798996        1.205777        4.124153
 H        13.806720        1.203665        2.576969
 H        14.302462       14.519583        7.862294
 H        15.191032        1.177711        7.856406
 H        14.049497        5.113062        7.074662
 H        15.328633        5.080317        7.916290
 H         9.543893        1.318777        8.669307
 H         9.092374        2.591255        7.950142
 H         1.736633        1.441468       13.123719
 H         0.411544        1.442982       12.324509
 H         5.725076        4.787052       10.907146
 H         5.257978        3.554780       10.089181
 H         6.070984        5.054413       13.136655
 H         7.419716        5.022211       12.362902
 H         5.594676        4.842149       15.345781
 H         4.266396        4.868848       14.544843
 H         2.580715       14.492496       14.587173
 H         2.144029        1.149606       15.371674
 H         2.118990        5.130786       13.720590
 H         2.555082        6.402101       14.484178
 H         5.616495        1.449662        9.277592
 H         4.299793        1.459466       10.084213
 H         4.253513        1.471734       14.534446
 H         5.130143        2.746334       14.524449
 H         1.734605        4.838520       15.963286
 H         0.393147        4.837009       16.728645
 H         1.768452        4.800523       11.497668
 H         1.299867        3.545796       12.270779
 H         2.674230        6.394233       10.098974
 H         3.606349        5.156814       10.112457
 H         2.635123       14.493238       10.136588
 H         2.174757        1.156694       10.896494
 H         6.021019        1.200749       13.086948
 H         6.053364        1.192158       11.544791
 H         7.398467        1.182444       16.721716
 H         6.052457        1.207148       15.954554
 H         6.035492        5.080661       17.565315
 H         7.374204        5.069067       16.788225
 H         1.780130        1.485108       17.623314
 H         1.333058        2.730988       16.820250
 H         9.562614        8.703843       11.554782
 H         9.566151        8.710331       13.100746
 H        12.984426       10.823550       10.043393
 H        13.440946       12.097830        9.292702
 H        13.770730       12.383805       11.547861
 H        13.764746       12.404650       13.095685
 H        12.062721       12.130975       14.612693
 H        13.411217       12.140544       15.367256
 H        10.406909        7.183203       14.556328
 H        11.302952        8.445785       14.574406
 H         9.890391       12.383622       15.357635
 H         9.916074       12.372963       13.812459
 H        13.420718        8.734982       10.840859
 H        13.453528        8.730237        9.294969
 H        13.437613        8.769555       15.367926
 H        12.976796       10.021794       14.590139
 H         8.136865       12.096319       16.806581
 H         9.021925       10.826803       16.798645
 H         9.562964       12.068262       11.543151
 H         9.099802       10.818158       12.319787
 H         9.957355       12.375169        9.293283
 H        11.303036       12.341416       10.062407
 H         9.943592        8.503448        9.298784
 H        11.297812        8.444781       10.038129
 H        14.217726        7.198436       12.318457
 H        13.782346        8.449697       13.120549
 H        15.187973        8.494729       16.816542
 H        13.846001        8.489712       17.589855
 H        13.813081       12.424279       17.611643
 H        14.257752       13.683540       16.829451
 H         9.498177        8.731652       15.999876
 H         8.145450        8.720791       16.747885
 H         1.242069       10.066057       12.289684
 H         0.351381        8.797460       12.291319
 H         5.676939       12.089271       10.896708
 H         5.214237       10.824170       10.135021
 H         6.538927       13.677882       12.334285
 H         7.438259       12.418424       12.337724
 H         5.186393       10.825878       14.518807
 H         5.649580       12.092589       13.764135
 H         2.113393        8.506195       15.285761
 H         2.084272        8.519842       13.738192
 H         2.167417       12.383797       15.370666
 H         3.495277       12.378113       14.576822
 H         4.280921        8.731158       10.137729
 H         5.638854        8.701652       10.883874
 H         4.248765        8.729528       14.483988
 H         5.605623        8.703079       13.737217
 H         1.745883       12.160714       17.612017
 H         0.411502       12.142943       16.832739
 H         1.719116       12.159843       13.121731
 H         0.384283       12.182233       12.337463
 H         2.176379       12.398461       10.884742
 H         3.530551       12.377511       10.135823
 H         2.179945        8.490551        9.309548
 H         2.117971        8.497889       10.855102
 H         7.420516        8.424226       12.324186
 H         6.544418        7.152487       12.326653
 H         6.456176        7.186502       16.744852
 H         5.993993        8.441567       15.969308
 H         6.005964       12.413839       15.997834
 H         6.455530       13.684901       16.754639
 H         1.803511        8.774944       17.558567
 H         1.338441       10.045620       16.812723
