384
 generated by VMD
 O         9.109149        1.755406       12.314259
 O        12.956333        4.505808       10.052410
 O        14.255004        5.393835       12.294531
 O        12.999068        4.483300       14.554808
 O        10.408596        0.851527       14.562949
 O        10.411720        5.395604       14.508786
 O        12.993677        1.772834       10.090424
 O        13.003668        1.748588       14.586094
 O         9.136841        4.510674       16.769390
 O         9.108734        4.497122       12.259947
 O        10.381947        5.419653       10.011988
 O        10.416885        0.857514       10.076751
 O        14.291168        0.873044       12.323194
 O        14.258941        0.828095       16.835054
 O        14.292086        5.431479       16.796928
 O         9.113322        1.775163       16.804516
 O         9.055676        9.206396        3.339820
 O        12.937587       11.824201        1.115548
 O        14.209499       12.740864        3.357292
 O        12.905025       11.817558        5.562281
 O        10.335756        8.202409        5.583989
 O        10.342095       12.708067        5.553064
 O        12.930694        9.075364        1.120606
 O        12.928528        9.073237        5.581989
 O         9.067385       11.815769        7.844882
 O         8.876078       11.919595        3.184852
 O        10.367229       12.737972        1.106483
 O        10.339293        8.169763        1.131892
 O        14.231775        8.155854        3.354656
 O        14.235533        8.137990        7.816193
 O        14.239266       12.717885        7.778398
 O         9.030313        9.068199        7.842598
 O         1.295286        9.036720        3.367779
 O         4.984287       12.378588        1.269044
 O         6.603386       12.907595        3.230020
 O         5.162068       11.689844        5.690819
 O         2.565745        8.095384        5.614397
 O         2.557141       12.691342        5.621709
 O         5.256418        8.873522        1.100701
 O         5.135070        9.006439        5.609958
 O         1.291105       11.791336        7.846605
 O         1.229644       11.777339        3.389390
 O         2.368308       12.816824        1.142870
 O         2.588923        8.116758        1.120682
 O         6.497366        8.109152        3.405351
 O         6.456558        8.140184        7.851791
 O         6.494293       12.720358        7.871058
 O         1.289415        9.047994        7.847439
 O         1.309663        1.812605        3.387394
 O         5.219645        4.468554        1.089983
 O         6.541730        5.376064        3.339556
 O         5.237283        4.446383        5.560539
 O         2.622766        0.841796        5.608640
 O         2.634888        5.355139        5.583619
 O         5.216249        1.681370        1.154757
 O         5.256561        1.719497        5.543000
 O         1.301007        4.500506        7.808855
 O         1.332088        4.524697        3.329539
 O         2.617107        5.379321        1.071851
 O         2.562308        0.939491        1.125131
 O         6.481702        0.782209        3.360725
 O         6.507761        0.864606        7.810549
 O         6.470558        5.394404        7.819030
 O         1.316829        1.756517        7.850416
 O         9.135208        1.773232        3.370780
 O        13.004132        4.506909        1.082954
 O        14.279594        5.423705        3.344688
 O        12.943280        4.498107        5.570312
 O        10.391326        0.857251        5.606868
 O        10.366455        5.446360        5.582137
 O        12.980428        1.772173        1.120245
 O        12.956692        1.745253        5.594276
 O         9.054175        4.497422        7.791036
 O         9.127692        4.520560        3.313614
 O        10.407706        5.406249        1.085529
 O        10.397099        0.872459        1.091454
 O        14.270023        0.871387        3.356725
 O        14.259873        0.858506        7.838225
 O        14.253244        5.404885        7.802499
 O         9.091950        1.751583        7.848433
 O         1.347175        1.781073       12.333717
 O         5.172363        4.523043       10.057076
 O         6.507288        5.407809       12.272521
 O         5.211352        4.472260       14.508332
 O         2.610217        0.835131       14.576955
 O         2.636254        5.407879       14.498979
 O         5.186828        1.795087       10.045321
 O         5.192842        1.735120       14.539896
 O         1.345294        4.516729       16.743031
 O         1.317933        4.516052       12.281466
 O         2.584447        5.442317       10.046880
 O         2.608707        0.858137       10.089540
 O         6.504408        0.887094       12.279028
 O         6.514920        0.849948       16.807646
 O         6.525648        5.316701       16.744057
 O         1.292867        1.776912       16.784456
 O         9.115410        9.059514       12.312201
 O        12.979590       11.794728       10.038196
 O        14.276975       12.726586       12.272126
 O        13.030225       11.790933       14.529652
 O        10.429001        8.135421       14.535722
 O        10.464404       12.714410       14.500048
 O        12.970797        9.047488       10.061539
 O        13.007097        9.055820       14.546273
 O         9.185467       11.779169       16.718552
 O         9.130784       11.799430       12.278491
 O        10.406681       12.725381       10.028017
 O        10.371070        8.153866       10.048244
 O        14.271221        8.130597       12.297507
 O        14.257567        8.169414       16.826258
 O        14.257587       12.694742       16.810064
 O         9.118757        9.021156       16.765543
 O         1.313224        9.054580       12.326861
 O         5.181082       11.814676       10.091102
 O         6.562939       12.745041       12.250907
 O         5.234627       11.796703       14.449917
 O         2.623975        8.146866       14.550558
 O         2.625168       12.691517       14.549502
 O         5.185203        9.072033       10.090053
 O         5.213800        9.049614       14.507545
 O         1.307189       11.783391       16.791269
 O         1.320835       11.793817       12.304672
 O         2.594671       12.717758       10.069295
 O         2.598794        8.172133       10.082518
 O         6.524933        8.149910       12.285293
 O         6.538522        8.047651       16.708454
 O         6.626046       12.670118       16.662706
 O         1.328319        9.041435       16.805380
 H         9.090720        2.718254       12.297990
 H         8.190651        1.465808       12.303438
 H        13.400558        4.830185        9.261975
 H        12.052322        4.837775       10.017135
 H        13.774599        5.067129       11.526540
 H        13.801009        5.059647       13.075648
 H        13.017622        3.520956       14.597343
 H        13.448887        4.805110       15.342922
 H         9.950230        1.153194       13.771749
 H        10.416933       14.491096       14.524693
 H        11.313843        5.058758       14.502935
 H         9.981418        5.069853       13.711710
 H        13.456242        1.486411       10.885695
 H        12.993633        2.736371       10.096817
 H        12.095528        1.427612       14.593337
 H        13.423472        1.409844       15.384348
 H         8.221535        4.810016       16.742218
 H         9.562097        4.838416       15.969855
 H         9.532995        4.826482       11.460582
 H         8.204675        4.827980       12.249248
 H        10.366027        6.383180       10.003140
 H         9.913808        5.123507        9.224528
 H         9.974671        1.176117       10.871293
 H        11.319292        1.194007       10.106504
 H        13.860060        1.184649       13.126131
 H        15.196505        1.200588       12.348330
 H        13.803848        1.130838       17.628115
 H        14.248913       14.466919       16.852058
 H        14.297939        6.394743       16.805382
 H        15.211269        5.145169       16.774340
 H         9.138251        2.738044       16.768967
 H         9.566145        1.459277       16.015024
 H         9.526249        8.876517        4.112812
 H         9.507001        8.842057        2.569213
 H        13.414833       12.132047        0.337571
 H        13.409572       12.158986        1.885689
 H        14.258295       13.703343        3.354427
 H        15.115762       12.414820        3.376300
 H        13.375566       12.152884        4.790125
 H        13.379749       12.146273        6.333881
 H         9.873145        8.484287        6.380126
 H        10.330415        7.239593        5.590806
 H         9.901582       12.414389        4.757991
 H        11.245439       12.366187        5.522905
 H        12.909515       10.037618        1.124134
 H        12.014631        8.777237        1.120978
 H        12.911301       10.035715        5.577674
 H        12.009844        8.782613        5.589714
 H         9.557211       12.147895        8.607347
 H         9.524800       12.133882        7.062191
 H         9.414033       12.189898        2.419343
 H         8.899299       10.948951        3.216414
 H        10.396898       13.701631        1.091971
 H        11.282489       12.432670        1.123680
 H         9.897879        8.452813        0.323331
 H        10.349363        7.207673        1.112962
 H        13.758232        8.491675        4.123391
 H        13.764534        8.484579        2.578872
 H        14.230408        7.174878        7.783601
 H        13.781050        8.446947        7.025544
 H        14.265500       13.680474        7.804714
 H        15.153035       12.415118        7.799318
 H         9.013873       10.030336        7.845886
 H         8.113902        8.770754        7.843077
 H         0.388362        8.712070        3.378845
 H         1.722155        8.690166        4.158244
 H         4.028153       12.584002        1.240076
 H         6.024013       12.648762        2.484856
 H         6.589879       13.933239        3.305604
 H         7.547395       12.491888        3.158638
 H         5.610596       11.975636        4.905101
 H         5.152425       10.720393        5.652980
 H         2.573181        7.132766        5.639743
 H         2.114884        8.398468        6.409879
 H         2.110416       12.373363        6.416573
 H         3.446198       12.332215        5.655983
 H         5.704481        8.601732        1.914572
 H         5.459967        9.796441        1.005431
 H         5.588348        8.677098        4.825535
 H         4.230748        8.671961        5.578099
 H         1.745340       12.094844        8.640649
 H         1.298642       10.828136        7.868664
 H         1.262971       10.813679        3.398531
 H         1.701336       12.076396        4.173531
 H         1.980130       12.429922        0.348628
 H         1.926174       12.431102        1.908493
 H         2.160825        8.451694        1.915934
 H         3.496367        8.431463        1.138310
 H         6.565525        7.147339        3.392488
 H         7.392982        8.459673        3.383076
 H         5.990357        8.475762        8.625488
 H         5.971655        8.447594        7.079230
 H         6.051843       12.341094        7.107402
 H         7.399681       12.388463        7.858877
 H         1.722663        8.729878        8.647099
 H         0.384119        8.719861        7.864816
 H         1.770940        1.504195        4.173111
 H         1.324418        2.776893        3.405411
 H         5.189512        3.509066        1.112999
 H         4.305887        4.773776        1.083755
 H         6.100007        5.065170        2.542998
 H         7.450678        5.057454        3.298436
 H         5.680508        4.795599        6.341745
 H         5.714698        4.785141        4.795056
 H         3.542267        1.120812        5.594855
 H         2.622848       14.481007        5.603817
 H         2.200782        5.057961        4.776446
 H         3.540989        5.032378        5.551478
 H         5.644580        1.376463        0.346160
 H         4.296058        1.396039        1.113665
 H         5.707030        1.433256        6.347425
 H         5.256544        2.685316        5.559307
 H         1.777339        4.775127        7.017773
 H         1.317441        3.537678        7.817492
 H         1.757615        4.832435        2.521185
 H         0.428928        4.860667        3.318719
 H         2.173558        5.095644        0.265084
 H         2.603101        6.342644        1.070294
 H         2.451126       14.586211        1.138053
 H         2.125646        1.263762        1.921359
 H         6.022863        1.127929        4.147233
 H         6.019874        1.125368        2.576663
 H         7.428152        1.150687        7.830981
 H         6.518153       14.504228        7.835604
 H         6.006290        5.100718        8.611016
 H         6.462314        6.357267        7.843344
 H         1.791381        1.422597        7.082874
 H         1.784203        1.432457        8.628422
 H         9.572185        1.445277        4.166642
 H         8.234931        1.452999        3.398423
 H        13.479628        4.839187        0.313430
 H        13.463925        4.840169        1.860303
 H        13.809296        5.111411        4.124285
 H        14.249181        6.386485        3.371314
 H        12.914168        3.536277        5.575318
 H        12.030968        4.806980        5.577822
 H        10.406272       14.497653        5.592874
 H        11.311423        1.149334        5.601470
 H         9.885660        5.102353        6.342710
 H         9.912324        5.121620        4.797789
 H        12.968375        2.735604        1.100901
 H        12.062010        1.482479        1.110393
 H        13.432718        1.428971        6.369778
 H        13.434612        1.426711        4.820587
 H         8.135506        4.786983        7.807638
 H         9.045712        3.535122        7.813463
 H         9.589451        4.816197        2.519611
 H         9.157030        3.559720        3.310907
 H        11.317097        5.090711        1.060119
 H         9.978630        5.085937        0.284731
 H         9.934548        1.200204        1.867545
 H         9.926664        1.205743        0.317876
 H        15.169361        1.215428        3.343520
 H        13.832211        1.201801        2.564161
 H        15.164930        1.187085        7.860724
 H        13.827967        1.187161        8.634311
 H        13.815081        5.067432        7.014043
 H        15.159009        5.077282        7.779596
 H         9.568976        1.427648        7.077481
 H         9.570515        1.436886        8.623363
 H         1.799131        1.481086       13.129457
 H         1.357255        2.744397       12.344035
 H         4.269598        4.857429       10.080317
 H         5.616311        4.847913       10.848694
 H         6.504811        6.370647       12.303991
 H         6.058926        5.100885       13.067695
 H         5.179173        3.509539       14.510124
 H         4.298953        4.781730       14.505323
 H         2.595956       14.474011       14.583217
 H         2.142817        1.128885       15.366206
 H         2.629154        6.371182       14.501833
 H         2.165409        5.128427       13.706337
 H         5.190897        2.758499       10.022857
 H         5.647863        1.494675        9.256392
 H         5.639677        1.419936       15.331283
 H         4.290628        1.398925       14.578432
 H         1.805371        4.803547       15.946797
 H         1.332176        3.554055       16.727592
 H         0.407584        4.830285       12.265917
 H         1.742281        4.849718       11.483297
 H         2.133730        5.142305        9.250787
 H         2.575278        6.405737       10.033082
 H         3.511851        1.192308       10.096725
 H         2.182476        1.194089       10.885908
 H         6.025157        1.186917       13.058453
 H         6.030447        1.224241       11.511907
 H         6.576810       14.493851       16.764870
 H         7.421805        1.175731       16.806898
 H         6.038607        4.995983       15.976525
 H         6.053845        5.010844       17.524368
 H         1.723240        1.490925       17.596544
 H         0.390978        1.439336       16.818209
 H         9.579834        8.757325       13.100303
 H         9.134583       10.022253       12.326780
 H        13.426184       12.085016        9.236302
 H        12.987427       10.831429       10.030322
 H        13.818183       12.433665       11.478172
 H        14.266828       13.689322       12.267164
 H        13.480534       12.092702       13.733866
 H        13.037669       10.827477       14.511262
 H         9.967161        8.423736       15.331052
 H        10.416537        7.172604       14.542054
 H        10.017474       12.381115       13.714900
 H        11.367176       12.377894       14.475559
 H        12.061877        8.729955       10.039776
 H        13.397740        8.710732        9.266093
 H        13.439734        8.714453       13.756420
 H        12.101586        8.726542       14.526693
 H         9.670576       12.115658       15.955764
 H         9.613415       12.125854       17.505926
 H         9.562859       12.127342       11.483387
 H         8.228961       12.138043       12.258554
 H        11.318612       12.414440       10.035210
 H        10.438410       13.688117       10.051383
 H         9.916797        8.475504       10.834686
 H         9.884043        8.492015        9.289232
 H        13.811383        8.434931       11.507694
 H        14.251456        7.167660       12.275667
 H        13.774728        8.499773       17.590797
 H        13.801451        8.495416       16.043186
 H        15.161967       12.364420       16.784584
 H        13.831985       12.374614       16.007238
 H         8.202950        8.724978       16.751440
 H         9.103196        9.983245       16.755014
 H         0.413616        8.710094       12.336392
 H         1.748499        8.728962       13.122340
 H         4.276489       12.145644       10.069991
 H         5.620132       12.144283        9.300396
 H         6.532056       13.707466       12.241295
 H         6.070520       12.443476       11.479718
 H         5.725802       12.112512       15.213511
 H         5.703048       12.132104       13.677501
 H         3.526814        8.483027       14.558824
 H         2.197861        8.467469       15.352112
 H         3.533601       12.376362       14.501398
 H         2.178889       12.366900       13.760290
 H         5.665431        8.766488       10.868107
 H         5.200875       10.034513       10.113223
 H         5.678506        8.741730       15.292616
 H         5.240859       10.012391       14.518876
 H         1.785061       12.080516       16.009604
 H         1.334618       10.820156       16.781656
 H         1.291133       10.830983       12.312676
 H         0.407914       12.100451       12.297216
 H         2.584735       13.680460       10.097857
 H         2.145852       12.411151       10.865341
 H         3.505159        8.498173       10.102376
 H         2.169918        8.491640       10.884282
 H         6.085096        8.478127       13.077692
 H         7.430686        8.476477       12.316600
 H         6.545479        7.083671       16.699163
 H         6.092209        8.291070       17.522221
 H         6.211662       12.292227       17.428701
 H         7.538011       12.346138       16.677412
 H         0.418444        8.726796       16.828730
 H         1.756034        8.711359       17.602125
