384
 generated by VMD
 O         9.142046        1.748893       12.325035
 O        12.989782        4.466848       10.063261
 O        14.244796        5.421913       12.300436
 O        12.975997        4.496012       14.563003
 O        10.368916        0.836436       14.589918
 O        10.389416        5.412029       14.589563
 O        13.062052        1.726075        9.978218
 O        12.931116        1.761358       14.573163
 O         9.072927        4.491434       16.816442
 O         9.134140        4.488233       12.334628
 O        10.393755        5.401534       10.087834
 O        10.416867        0.854852       10.048759
 O        14.184463        0.848458       12.313056
 O        14.255247        0.871932       16.807148
 O        14.265365        5.400801       16.794909
 O         9.083385        1.748131       16.828289
 O         9.036703        9.072437        3.341068
 O        12.992256       11.797550        1.082202
 O        14.276949       12.707626        3.337932
 O        12.978931       11.797628        5.574717
 O        10.371860        8.174159        5.555312
 O        10.408230       12.712732        5.567944
 O        12.937338        9.056165        1.108257
 O        12.954017        9.065640        5.552722
 O         9.116618       11.795983        7.791840
 O         9.096836       11.813090        3.325164
 O        10.410103       12.705003        1.090540
 O        10.346773        8.163277        1.107834
 O        14.268054        8.151356        3.323216
 O        14.223653        8.197584        7.812996
 O        14.276057       12.713168        7.779513
 O         9.100327        9.053699        7.819223
 O         1.318111        9.087249        3.304879
 O         5.216223       11.790092        1.104183
 O         6.517486       12.732963        3.331073
 O         5.200861       11.808339        5.554442
 O         2.621502        8.188751        5.542804
 O         2.643514       12.747445        5.552196
 O         5.197825        9.051755        1.063593
 O         5.218154        9.068572        5.543835
 O         1.322415       11.782295        7.775742
 O         1.333778       11.819676        3.337327
 O         2.639522       12.718212        1.103999
 O         2.618295        8.141459        1.092575
 O         6.465879        8.123870        3.302187
 O         6.512739        8.139254        7.775604
 O         6.536678       12.691858        7.802510
 O         1.300128        9.037208        7.801679
 O         1.276580        1.729382        3.365583
 O         5.209122        4.488120        1.113383
 O         6.516470        5.376664        3.339758
 O         5.200858        4.485632        5.576371
 O         2.508165        0.797183        5.802412
 O         2.626976        5.456410        5.519541
 O         5.184247        1.748389        1.090019
 O         5.038881        1.742121        5.629836
 O         1.256800        4.646312        7.781767
 O         1.315806        4.490909        3.317269
 O         2.636308        5.404119        1.084402
 O         2.580586        0.864411        1.078066
 O         6.442851        0.881130        3.366492
 O         6.559717        0.840805        7.752145
 O         6.514399        5.402911        7.800948
 O         1.171079        1.532960        7.743712
 O         9.057190        1.758180        3.363880
 O        12.970629        4.515241        1.090369
 O        14.271750        5.409480        3.315998
 O        12.994377        4.527844        5.562905
 O        10.387886        0.858537        5.575595
 O        10.404449        5.442910        5.582353
 O        12.981201        1.776286        1.110522
 O        12.939095        1.766743        5.568307
 O         9.113291        4.523597        7.824236
 O         9.118340        4.493070        3.354815
 O        10.391661        5.420191        1.093974
 O        10.395631        0.845093        1.131702
 O        14.242708        0.853658        3.335269
 O        14.351565        0.769948        7.820334
 O        14.227208        5.476899        7.814987
 O         9.129703        1.785401        7.807091
 O         1.196746        1.871000       12.430966
 O         5.243674        4.512815       10.081390
 O         6.548347        5.412199       12.334788
 O         5.218253        4.530145       14.571488
 O         2.608889        0.880092       14.554696
 O         2.643658        5.465199       14.563909
 O         5.317637        1.713526        9.997949
 O         5.205872        1.776010       14.556607
 O         1.332249        4.531366       16.775616
 O         1.319982        4.588948       12.359864
 O         2.645360        5.462785       10.085864
 O         2.152452        1.037134       10.104726
 O         6.554267        0.858887       12.332146
 O         6.494849        0.843924       16.803242
 O         6.494203        5.431602       16.820889
 O         1.295101        1.795792       16.786732
 O         9.095818        9.061442       12.332173
 O        12.970903       11.791789       10.051800
 O        14.240148       12.717464       12.320805
 O        12.981418       11.783185       14.566285
 O        10.395172        8.151814       14.566821
 O        10.397402       12.701178       14.560011
 O        12.939741        9.065264       10.068353
 O        12.988115        9.050944       14.582878
 O         9.101170       11.807459       16.804260
 O         9.127521       11.805641       12.308619
 O        10.393106       12.723836       10.038614
 O        10.366488        8.144907       10.080467
 O        14.251220        8.167781       12.307650
 O        14.256290        8.134892       16.830225
 O        14.291262       12.722413       16.801262
 O         9.081877        9.072625       16.793970
 O         1.312856        9.066730       12.312329
 O         5.318460       11.705330       10.076984
 O         6.556602       12.708544       12.321001
 O         5.213492       11.825136       14.551807
 O         2.620896        8.195025       14.565000
 O         2.613416       12.730845       14.560325
 O         5.260181        8.976440       10.051810
 O         5.208177        9.088851       14.557450
 O         1.348660       11.802183       16.801468
 O         1.309952       11.817299       12.332431
 O         2.664850       12.542442       10.094596
 O         2.623749        8.188684       10.056022
 O         6.508415        8.156473       12.332973
 O         6.501445        8.167682       16.784657
 O         6.511571       12.700203       16.802187
 O         1.306655        9.064633       16.815868
 H         8.234273        1.427170       12.305110
 H         9.573175        1.425043       11.527874
 H        13.433107        4.836884        9.293499
 H        13.450765        4.810253       10.837259
 H        15.168598        5.151002       12.324752
 H        14.248130        6.385420       12.303066
 H        13.415034        4.798100       13.761148
 H        12.970783        3.532874       14.535698
 H        10.368020       14.475489       14.559550
 H         9.929970        1.138030       13.786713
 H         9.949326        5.079425       15.378920
 H        11.294622        5.084436       14.610826
 H        13.044192        2.690360       10.012932
 H        13.462766        1.431749       10.805052
 H        13.341647        1.417754       13.773219
 H        12.024095        1.434210       14.574607
 H         9.048263        3.528755       16.819862
 H         8.159412        4.796329       16.814323
 H         9.145931        3.525420       12.355964
 H         9.578586        4.790070       13.134087
 H         9.961806        5.065438       10.881263
 H        11.295045        5.064991       10.102519
 H        11.334240        1.138563       10.025428
 H        10.426674       14.492740       10.040327
 H        14.229313       14.487196       12.319443
 H        15.086107        1.174755       12.380674
 H        13.809922        1.190379       16.014572
 H        15.154630        1.216250       16.776396
 H        15.174982        5.085003       16.771561
 H        13.835161        5.070322       15.998447
 H         9.548662        1.416524       16.052578
 H         9.558790        1.424545       17.599922
 H         9.020580       10.035311        3.337533
 H         8.122128        8.770611        3.332009
 H        13.469349       12.126399        0.312410
 H        13.460633       12.120015        1.858798
 H        14.249865       13.669323        3.355189
 H        13.811400       12.403577        4.124562
 H        12.949168       10.834247        5.559412
 H        12.064177       12.103248        5.573844
 H         9.914572        8.493402        6.341125
 H         9.880871        8.500515        4.793256
 H        10.388531       13.674803        5.593314
 H         9.943007       12.405259        6.354648
 H        12.018119        8.768104        1.113494
 H        12.928405       10.018933        1.092808
 H        13.401165        8.730722        4.768016
 H        12.048120        8.738264        5.523117
 H         9.094020       10.833047        7.802980
 H         8.198615       12.090557        7.793703
 H         9.578233       12.125663        2.551630
 H         9.572974       12.134665        4.097860
 H        10.429711       13.667673        1.105535
 H        11.326696       12.408431        1.087622
 H         9.884626        8.495324        0.330557
 H         9.866617        8.486634        1.877561
 H        15.170330        8.487426        3.297370
 H        13.821803        8.486504        2.537809
 H        13.753177        8.519249        8.589793
 H        13.755764        8.526520        7.037726
 H        15.178107       12.372663        7.761392
 H        13.829352       12.370864        6.994003
 H         9.523622        8.723996        8.619004
 H         8.195800        8.722498        7.827243
 H         1.784945        8.764811        4.083567
 H         1.793018        8.747162        2.538486
 H         4.314709       12.128690        1.122669
 H         5.654896       12.129907        1.891146
 H         7.436955       12.446249        3.328633
 H         6.522952       13.695209        3.344334
 H         5.673024       12.112438        4.771886
 H         5.217402       10.845057        5.530608
 H         2.156165        8.466339        6.338933
 H         2.618488        7.225710        5.545429
 H         3.548728       12.410302        5.534421
 H         2.203177       12.412374        4.761541
 H         5.662464        8.770277        0.267414
 H         5.212628       10.014978        1.068113
 H         5.636208        8.725234        4.746685
 H         4.307395        8.755601        5.533461
 H         1.814555       12.117126        7.018919
 H         1.799746       12.062016        8.561495
 H         0.416600       12.113842        3.340520
 H         1.314614       10.855906        3.322444
 H         2.610106       13.680221        1.106066
 H         2.172095       12.425206        1.893700
 H         3.532256        8.446281        1.077068
 H         2.647321        7.178652        1.092676
 H         6.472931        7.161214        3.291800
 H         6.014001        8.414389        2.502513
 H         6.056312        8.447838        6.985417
 H         6.502558        7.176509        7.747907
 H         6.082952       12.354946        8.581989
 H         6.047897       12.372589        7.036993
 H         1.288640        9.999354        7.780876
 H         0.379618        8.754127        7.804772
 H         1.683991        1.403482        4.166244
 H         0.366903        1.405544        3.369040
 H         5.216122        3.525010        1.112935
 H         5.678718        4.769518        1.906308
 H         7.425773        5.061505        3.366994
 H         6.081339        5.050964        4.134943
 H         4.310056        4.849798        5.582197
 H         5.640758        4.812048        6.369164
 H         2.585509       14.432014        5.709766
 H         3.412894        1.154582        5.777689
 H         2.137289        5.166063        6.293203
 H         2.155592        5.113064        4.752398
 H         4.276804        1.429884        1.056373
 H         5.629068        1.413491        0.303490
 H         5.089091        2.705349        5.635824
 H         5.565578        1.441269        6.379073
 H         1.216156        3.698607        7.764490
 H         0.336720        4.950917        7.795784
 H         0.402654        4.799623        3.310651
 H         1.282208        3.530489        3.333041
 H         2.190907        5.070897        1.869604
 H         3.538891        5.067388        1.114374
 H         2.109153        1.204897        0.309794
 H         2.116781        1.183472        1.856411
 H         5.940203        1.187763        4.125659
 H         5.980392        1.190934        2.580219
 H         6.577049       14.479730        7.770766
 H         7.474945        1.142686        7.747030
 H         7.423006        5.083879        7.825191
 H         6.087728        5.087308        8.603639
 H         1.746287        1.188866        6.952013
 H         0.197358        1.193603        7.748045
 H         9.053782        2.721653        3.359408
 H         8.136685        1.477177        3.367537
 H        12.065409        4.845458        1.066096
 H        13.406798        4.835543        0.293045
 H        13.807723        5.119506        2.522322
 H        14.266533        6.372992        3.302265
 H        13.450203        4.813050        4.762723
 H        12.986899        3.566706        5.552456
 H         9.929427        1.199125        6.352641
 H         9.901554        1.177122        4.806614
 H        11.321818        5.152320        5.576159
 H        10.413950        6.406476        5.572453
 H        12.989166        2.739381        1.080980
 H        13.427989        1.471826        0.312388
 H        13.376383        1.413395        6.341464
 H        12.029412        1.439928        5.587912
 H         9.583337        4.861505        7.054599
 H         9.575229        4.853664        8.602212
 H         9.588116        4.834223        4.123483
 H         9.578103        4.825365        2.576945
 H        10.361186        6.382733        1.076794
 H         9.918201        5.112732        0.313464
 H        11.293730        1.190647        1.154896
 H         9.947079        1.168650        1.919399
 H        13.760859        1.187276        4.098509
 H        13.788005        1.186823        2.551877
 H        14.287058       14.399529        7.823806
 H        13.892283        1.103481        8.611156
 H        14.199005        6.441454        7.798848
 H        13.780820        5.169757        7.018195
 H         9.579221        1.483389        8.603289
 H         9.129969        2.748731        7.834350
 H         1.713297        1.540594       13.176414
 H         1.236119        2.835465       12.455648
 H         4.331244        4.820168       10.077495
 H         5.212793        3.554012       10.052951
 H         6.108285        5.082315       11.545096
 H         7.450668        5.076664       12.310368
 H         5.683758        4.859209       15.347998
 H         5.703774        4.843369       13.801075
 H         3.526729        1.173567       14.553356
 H         2.627520       14.518843       14.551521
 H         2.668113        6.428910       14.571207
 H         3.557896        5.160243       14.563393
 H         5.781236        1.413925        9.201481
 H         4.469341        1.292693        9.956603
 H         5.219168        2.738458       14.583258
 H         5.663867        1.470641       15.346761
 H         1.803275        4.847743       17.553827
 H         1.804955        4.874562       16.009357
 H         1.793936        4.891161       11.578744
 H         1.803922        4.923323       13.124995
 H         2.642928        6.427753       10.073204
 H         2.173745        5.189867        9.296671
 H         1.773741        1.354903       10.951245
 H         1.579440        1.339807        8.608685
 H         6.108522        1.182810       11.545664
 H         6.066145        1.195468       13.091500
 H         6.519257       14.483099       16.799650
 H         7.411154        1.140288       16.816883
 H         6.483881        6.394803       16.834755
 H         6.034017        5.131733       17.611580
 H         1.767137        1.485013       16.006866
 H         1.323345        2.758797       16.760674
 H         8.176078        8.774529       12.333658
 H         9.086830       10.024537       12.323057
 H        13.435529       12.079764        9.261894
 H        12.971889       10.827559       10.039467
 H        13.783624       12.378548       11.544344
 H        13.776927       12.373617       13.092944
 H        12.996254       10.820037       14.599545
 H        13.441966       12.095147       15.351755
 H        10.378796        7.189044       14.553194
 H         9.936383        8.450314       13.774135
 H         9.968753       12.374691       13.761012
 H        11.301078       12.368611       14.545846
 H        12.036690        8.729384       10.096409
 H        13.384482        8.738385       10.857899
 H        13.415042        8.713416       15.377750
 H        12.081701        8.725257       14.595067
 H         9.565325       12.136574       16.027020
 H         9.578065       12.137083       17.573511
 H         9.550342       12.134417       11.508894
 H         8.224334       12.143089       12.300218
 H         9.958461       12.388427        9.246920
 H        11.293957       12.383981       10.023372
 H        10.365311        7.182095       10.105292
 H         9.910780        8.445483       10.874229
 H        15.157827        8.492886       12.321778
 H        13.830365        8.490443       13.111533
 H        13.786990        8.429073       17.617870
 H        14.248174        7.171629       16.839958
 H        15.208881       12.430242       16.796116
 H        14.303505       13.685112       16.796579
 H         9.104820       10.035661       16.775757
 H         9.550744        8.768682       16.009296
 H         1.774487        8.768588       13.103506
 H         1.321227       10.028728       12.340734
 H         4.393370       11.960725       10.083892
 H         5.321312       10.740879       10.071996
 H         6.531116       13.670245       12.291011
 H         6.111966       12.387990       11.528873
 H         5.689468       12.153350       13.781850
 H         5.686428       12.143559       15.328092
 H         2.181294        8.512698       15.360603
 H         3.522832        8.533454       14.584816
 H         2.192779       12.389819       15.357343
 H         3.519443       12.404302       14.564992
 H         5.676060        8.661712        9.241219
 H         4.340747        8.692943       10.026505
 H         5.657774        8.780153       13.763133
 H         5.227575       10.051837       14.532140
 H         1.803028       12.095515       17.597933
 H         1.339009       10.838923       16.825186
 H         1.744345       12.152186       13.125386
 H         0.404263       12.144153       12.346213
 H         2.761352       13.484865       10.116100
 H         2.180666       12.301388       10.898329
 H         2.155278        8.515029       10.831409
 H         2.142821        8.504998        9.283892
 H         6.520225        7.193462       12.329568
 H         6.066704        8.423319       11.518993
 H         7.406796        8.496975       16.763611
 H         6.067152        8.497456       15.990093
 H         7.416036       12.369875       16.824907
 H         6.073586       12.369685       17.593456
 H         0.403211        8.731841       16.835583
 H         1.745055        8.721979       17.602173
