384
 generated by VMD
 O         9.087067        1.749481       12.334380
 O        12.971313        4.520723       10.081650
 O        14.268548        5.412388       12.330141
 O        12.957234        4.542717       14.567700
 O        10.402819        0.842504       14.557586
 O        10.378604        5.445261       14.557852
 O        12.975435        1.789916       10.088182
 O        12.974003        1.793934       14.552770
 O         9.098701        4.515368       16.786381
 O         9.076690        4.495191       12.335881
 O        10.370745        5.409490       10.086178
 O        10.394756        0.877436       10.078504
 O        14.272132        0.878225       12.323591
 O        14.269674        0.876123       16.780130
 O        14.258159        5.410385       16.824024
 O         9.075437        1.775460       16.766581
 O         9.142276        9.061066        3.273480
 O        12.993380       11.831948        1.093780
 O        14.299540       12.732264        3.332154
 O        12.990584       11.830302        5.584231
 O        10.488070        8.139279        5.495484
 O        10.397512       12.729468        5.532573
 O        13.015560        9.079101        1.128821
 O        13.043518        9.094145        5.559232
 O         9.085287       11.868307        7.789893
 O         9.102124       11.809068        3.304790
 O        10.388137       12.715508        1.046363
 O        10.435223        8.142802        1.046654
 O        14.362185        8.172611        3.349150
 O        14.261992        8.167577        7.833538
 O        14.229323       12.720357        7.865415
 O         9.249846        9.122526        7.716534
 O         1.397443        9.083764        3.416953
 O         5.195926       11.810863        1.082008
 O         6.468099       12.671198        3.339555
 O         5.053086       11.707458        5.676266
 O         2.800810        8.217319        5.542175
 O         2.596379       12.713427        5.581131
 O         5.200460        9.075823        1.016958
 O         5.053092        9.257491        5.618132
 O         1.280758       11.796077        7.848494
 O         1.339441       11.823730        3.337448
 O         2.608953       12.715782        1.078962
 O         2.618004        8.144204        1.119497
 O         6.515769        8.169068        3.170303
 O         6.779706        8.211213        7.300281
 O         6.399915       12.671773        7.771145
 O         1.339228        9.049414        7.870020
 O         1.345110        1.753052        3.336422
 O         5.203969        4.470687        1.085647
 O         6.510361        5.380991        3.311872
 O         5.200692        4.493074        5.561616
 O         2.603286        0.827645        5.600488
 O         2.631763        5.526384        5.573756
 O         5.215299        1.742187        1.101878
 O         5.182520        1.751342        5.563590
 O         1.309894        4.537777        7.776112
 O         1.390298        4.501617        3.343237
 O         2.621678        5.398751        1.067114
 O         2.626590        0.848253        1.072325
 O         6.529797        0.840581        3.342561
 O         6.471854        0.801153        7.808163
 O         6.525220        5.283646        7.873514
 O         1.302451        1.776073        7.818887
 O         9.116852        1.752243        3.287014
 O        13.005049        4.479511        1.130525
 O        14.334130        5.414693        3.347837
 O        12.985339        4.497125        5.560834
 O        10.377458        0.859351        5.550028
 O        10.401028        5.404530        5.574419
 O        12.983995        1.748443        1.096980
 O        12.969423        1.765047        5.583075
 O         9.127954        4.458457        7.834026
 O         9.117269        4.492226        3.317038
 O        10.429637        5.401083        1.079336
 O        10.400393        0.853997        1.038602
 O        14.279113        0.869032        3.344782
 O        14.240609        0.865665        7.838013
 O        14.233273        5.422881        7.826241
 O         9.092327        1.717830        7.811642
 O         1.326571        1.738271       12.309762
 O         5.155446        4.437016       10.131772
 O         6.485342        5.381633       12.347167
 O         5.168343        4.496077       14.566449
 O         2.630264        0.836944       14.537170
 O         2.580881        5.408089       14.548172
 O         5.199499        1.697452       10.073735
 O         5.202951        1.756779       14.563655
 O         1.304088        4.496225       16.786629
 O         1.292289        4.470174       12.320130
 O         2.562378        5.380686       10.086324
 O         2.598714        0.838056       10.060783
 O         6.498458        0.836449       12.329746
 O         6.497868        0.853273       16.799597
 O         6.499779        5.392336       16.795280
 O         1.331635        1.754194       16.761122
 O         9.079388        9.080630       12.298463
 O        12.941204       11.795296       10.108620
 O        14.243532       12.739917       12.336547
 O        12.953807       11.817858       14.564513
 O        10.380290        8.193836       14.541413
 O        10.370260       12.704430       14.575470
 O        12.959631        9.056173       10.099640
 O        12.972608        9.083292       14.578982
 O         9.056374       11.786715       16.793606
 O         9.075974       11.819408       12.324201
 O        10.360800       12.746535       10.083232
 O        10.359691        8.173496       10.036538
 O        14.234796        8.147771       12.346334
 O        14.268534        8.142978       16.818359
 O        14.265583       12.737696       16.787607
 O         9.080093        9.056844       16.796974
 O         1.264487        9.081959       12.400490
 O         5.154049       11.798373       10.063744
 O         6.480682       12.706981       12.307124
 O         5.212889       11.787493       14.561392
 O         2.599557        8.150876       14.593465
 O         2.626798       12.705069       14.574363
 O         5.027458        8.992303       10.183408
 O         5.194705        9.045017       14.578818
 O         1.308234       11.793763       16.800564
 O         1.292895       11.824550       12.342777
 O         2.580306       12.701027       10.091033
 O         2.481638        8.123257       10.174264
 O         6.505887        8.130934       12.368452
 O         6.497372        8.126573       16.779957
 O         6.475780       12.723806       16.800009
 O         1.303130        9.049418       16.825016
 H         9.554972        1.436408       11.553321
 H         9.566368        1.410962       13.098262
 H        12.065048        4.845902       10.070890
 H        13.394072        4.848732        9.280386
 H        15.166225        5.061574       12.308352
 H        13.827797        5.093460       11.535342
 H        13.429292        4.858311       15.345407
 H        13.435105        4.867211       13.796541
 H        11.317080        1.145256       14.558498
 H        10.421404       14.481785       14.573134
 H        11.297093        5.153445       14.560725
 H        10.395100        6.408044       14.545430
 H        12.986395        2.753310       10.106920
 H        13.434135        1.490647       10.880565
 H        13.437292        1.502635       13.759665
 H        12.969270        2.756812       14.536327
 H         9.556112        4.861499       16.011797
 H         9.581617        4.834157       17.555826
 H         9.093342        3.532381       12.355859
 H         9.539076        4.799428       13.123858
 H         9.914005        5.113959       10.880932
 H        10.342828        6.371305       10.089157
 H         9.960815        1.188216        9.277358
 H        11.297556        1.213577       10.059443
 H        15.194418        1.157783       12.317767
 H        14.275836       14.517196       12.326672
 H        13.832916        1.218664       15.992470
 H        15.177624        1.196356       16.754328
 H        15.161840        5.076625       16.831280
 H        13.831142        5.067498       17.616465
 H         9.539659        1.472635       15.978784
 H         9.096378        2.738444       16.749392
 H         8.228037        8.768912        3.240569
 H         9.120698       10.024296        3.283617
 H        12.086021       12.152079        1.060794
 H        13.427459       12.159063        0.298087
 H        13.830432       12.434325        2.544934
 H        14.280478       13.695539        3.315635
 H        13.469332       12.163929        4.818587
 H        13.444225       12.156306        6.369082
 H        10.009520        8.430758        4.713045
 H        10.448373        7.175883        5.505725
 H         9.957421       12.424629        6.332420
 H        11.304454       12.406467        5.569457
 H        12.101933        8.775157        1.104944
 H        12.989053       10.041535        1.113884
 H        13.001698       10.056595        5.567966
 H        12.135530        8.774400        5.528829
 H         8.157414       12.116263        7.781632
 H         9.117411       10.907353        7.774683
 H         8.194394       12.121650        3.341847
 H         9.543330       12.140096        4.095189
 H         9.911818       12.372056        0.282186
 H         9.922894       12.395593        1.825423
 H         9.983538        8.442386        1.842387
 H        10.435650        7.179707        1.075036
 H        13.883861        8.495469        2.577841
 H        13.887927        8.504063        4.120195
 H        13.844754        8.513170        7.037091
 H        15.172275        8.476741        7.820694
 H        13.788417       12.380732        8.651746
 H        15.131248       12.385358        7.887459
 H         9.650471        8.771310        8.521613
 H         9.758078        8.788241        6.967623
 H         0.484039        8.770389        3.396968
 H         1.354759       10.046568        3.384132
 H         5.632700       12.156566        0.294100
 H         4.288895       12.136188        1.058050
 H         5.984413       12.337930        4.092143
 H         6.005540       12.359257        2.551579
 H         4.160544       12.101216        5.657784
 H         5.524488       12.077695        6.445688
 H         2.281492        8.515978        4.776010
 H         2.765252        7.245325        5.550402
 H         2.140321       12.431618        4.778074
 H         2.589167       13.679795        5.581450
 H         5.217866       10.039274        0.998820
 H         5.651685        8.764326        0.221773
 H         4.125874        8.809372        5.620243
 H         5.026655       10.302564        5.677692
 H         1.734115       12.100055        7.057590
 H         1.315266       10.834290        7.834790
 H         1.768117       12.147015        2.536694
 H         0.431399       12.149101        3.313488
 H         2.603210       13.679212        1.053318
 H         2.142577       12.411845        0.292253
 H         3.520562        8.478183        1.096646
 H         2.216509        8.480313        1.925706
 H         6.035646        8.526949        3.906461
 H         6.052886        8.488619        2.380366
 H         7.686773        8.556380        7.432168
 H         5.649454        8.880213        6.288796
 H         6.414985       13.637544        7.796113
 H         5.973028       12.382343        8.586246
 H         1.854002        8.727522        7.131933
 H         1.764403        8.717084        8.670174
 H         0.435034        1.438490        3.354261
 H         1.768652        1.418149        4.133220
 H         5.633903        4.801984        1.880921
 H         4.301065        4.806274        1.095185
 H         6.497779        6.340575        3.298180
 H         6.052909        5.106052        4.114160
 H         4.309736        4.855532        5.597372
 H         5.641645        4.770869        6.369398
 H         2.168312        1.175069        6.387444
 H         3.505623        1.165686        5.604564
 H         2.155887        5.189533        6.342213
 H         2.187017        5.165099        4.797992
 H         5.676022        1.447720        1.894009
 H         5.218605        2.705823        1.118528
 H         5.188092        2.714096        5.537379
 H         5.657187        1.452690        4.781256
 H         1.289074        3.575361        7.781562
 H         0.393081        4.831817        7.796622
 H         1.389064        3.538590        3.336954
 H         1.828986        4.783664        2.533373
 H         2.603264        6.360874        1.064282
 H         2.155159        5.105918        0.276489
 H         3.533858        1.171002        1.101068
 H         2.192981        1.172231        1.868513
 H         7.448122        1.132024        3.326872
 H         6.539395       14.482166        3.343323
 H         6.005280        1.154297        7.043622
 H         6.016670        1.133892        8.589707
 H         6.545577        6.231483        7.842253
 H         7.448900        4.996479        7.865407
 H         1.735554        1.448343        8.614063
 H         0.398192        1.445508        7.841912
 H         9.572738        1.461302        2.489947
 H         9.127223        2.715361        3.279501
 H        13.474318        4.780378        1.915439
 H        13.011150        3.516071        1.145972
 H        15.249784        5.116571        3.347836
 H        14.356583        6.376769        3.349407
 H        13.461243        4.793910        4.778543
 H        12.996496        3.533779        5.548225
 H         9.937532        1.162145        4.748387
 H        10.379969       14.498944        5.517241
 H        11.304271        5.068544        5.583717
 H         9.974378        5.074366        6.371792
 H        13.425509        1.434787        0.300290
 H        12.078245        1.422042        1.056592
 H        13.394926        1.438181        6.383277
 H        12.062983        1.439857        5.595886
 H         9.135877        3.495294        7.848132
 H         9.570575        4.757649        8.635812
 H         8.210485        4.813615        3.335557
 H         9.542911        4.817626        4.117291
 H        11.331639        5.064400        1.115608
 H         9.983592        5.076746        1.868378
 H        10.378380       14.493299        1.020404
 H         9.932876        1.158945        0.253471
 H        13.802575        1.191130        4.117299
 H        13.806892        1.190729        2.569217
 H        13.796718        1.177264        8.634417
 H        14.223489       14.505670        7.870881
 H        14.228476        6.385562        7.804003
 H        13.790174        5.122701        7.025699
 H         9.518551        1.399788        7.008214
 H         8.187723        1.391582        7.794810
 H         1.791433        1.412737       11.530961
 H         1.805874        1.409208       13.077996
 H         5.624698        4.777971       10.901236
 H         5.640816        4.747222        9.363011
 H         6.515614        6.343562       12.346034
 H         7.400249        5.078951       12.339528
 H         5.642601        4.821290       15.338662
 H         5.648520        4.818157       13.795078
 H         3.544879        1.140431       14.546691
 H         2.655133       14.476137       14.548498
 H         3.486724        5.080616       14.532331
 H         2.148963        5.072530       13.754937
 H         5.190886        2.660305       10.110765
 H         5.661547        1.403087       10.866097
 H         5.197187        2.720165       14.582232
 H         5.660067        1.467054       15.360547
 H         1.323753        3.533514       16.761734
 H         1.754029        4.799193       15.990108
 H         1.740939        4.764307       11.519348
 H         1.310974        3.506710       12.305648
 H         2.147674        5.079290        9.271304
 H         3.469707        5.058754       10.072661
 H         3.519703        1.120682       10.063438
 H         2.606908       14.477255       10.063117
 H         7.404393        1.163187       12.350474
 H         6.061964        1.174728       13.118994
 H         7.400972        1.188638       16.809397
 H         6.069738        1.175941       17.600046
 H         7.406829        5.068712       16.812609
 H         6.065951        5.055521       17.586193
 H         1.801988        1.417848       15.990045
 H         1.801051        1.430023       17.536205
 H         9.088108       10.043686       12.322645
 H         9.543694        8.783537       13.088814
 H        12.027870       12.099514       10.099279
 H        12.917918       10.832330       10.109281
 H        13.771889       12.407566       13.108309
 H        13.779059       12.400194       11.564432
 H        12.948492       10.854398       14.570511
 H        12.032708       12.100367       14.572005
 H        11.286083        8.519553       14.575082
 H         9.940948        8.510900       15.337484
 H         9.900004       12.390009       13.795866
 H         9.890828       12.371455       15.341730
 H        13.430633        8.734826        9.324391
 H        13.427347        8.720320       10.872174
 H        13.440624        8.742615       15.347937
 H        13.428097        8.740923       13.801511
 H         9.033958       10.823247       16.799271
 H         8.142859       12.091146       16.799231
 H         8.168428       12.140704       12.298567
 H         9.509340       12.158151       11.533607
 H         9.907940       12.467361        9.282537
 H        10.375612       13.710279       10.068557
 H         9.911330        8.506731       10.821444
 H        11.270176        8.483219       10.091207
 H        14.271194        7.184880       12.340722
 H        15.145647        8.460874       12.367843
 H        14.248223        7.179790       16.844458
 H        13.822394        8.453318       17.613400
 H        13.802851       12.438294       15.997458
 H        14.262913       13.700843       16.762753
 H         8.183480        8.706336       16.812019
 H         9.529649        8.717804       17.578823
 H         1.285510       10.045193       12.399715
 H         1.736973        8.788598       13.187583
 H         4.237772       12.101086       10.073363
 H         5.115157       10.840030       10.091249
 H         6.472831       13.670773       12.299326
 H         6.015807       12.417326       11.516438
 H         5.659505       12.084112       13.761093
 H         5.224534       10.824541       14.546997
 H         2.578509        7.187848       14.593390
 H         2.146763        8.440048       15.393318
 H         2.190069       12.373602       15.366070
 H         3.527181       12.363504       14.585313
 H         4.103834        8.697205       10.223072
 H         5.374305        8.560122        9.414660
 H         5.634459        8.708175       13.790405
 H         4.288182        8.720121       14.558456
 H         1.277139       10.831239       16.810114
 H         0.396087       12.103332       16.790939
 H         0.390867       12.161709       12.368864
 H         1.741579       12.156849       13.127512
 H         2.109105       12.384459       10.869824
 H         2.107188       12.370462        9.320827
 H         2.022426        8.421279       10.969015
 H         2.490014        7.159509       10.181130
 H         6.030806        8.449258       11.597430
 H         7.400995        8.485569       12.318260
 H         6.037730        8.421621       15.985036
 H         6.483620        7.162940       16.769854
 H         6.029235       12.423005       16.000916
 H         6.478476       13.687369       16.775797
 H         1.733871        8.729363       17.623674
 H         0.400207        8.711342       16.840185
