384
 generated by VMD
 O         9.090935        1.771497       12.319442
 O        12.999070        4.513776       10.088477
 O        14.265776        5.425386       12.329170
 O        12.973342        4.509821       14.562497
 O        10.398073        0.881316       14.554660
 O        10.392788        5.416956       14.536064
 O        12.975904        1.769614       10.076388
 O        12.990679        1.767655       14.558934
 O         9.079123        4.498680       16.765234
 O         9.124432        4.508413       12.283618
 O        10.422727        5.445309       10.051668
 O        10.390860        0.852957       10.084615
 O        14.281218        0.877041       12.310996
 O        14.263180        0.833240       16.792191
 O        14.261095        5.408644       16.792770
 O         9.072463        1.765492       16.785812
 O         9.272676        8.902216        3.372186
 O        12.973484       11.796282        1.095779
 O        14.241804       12.695032        3.352325
 O        12.964569       11.793705        5.619951
 O        10.444204        8.089410        5.366716
 O        10.408088       12.806323        5.627784
 O        12.860518        9.071438        1.080373
 O        12.920630        9.062738        5.597134
 O         9.097313       11.812679        7.821651
 O         9.079442       11.988119        3.340772
 O        10.412610       12.760213        1.033246
 O        10.304148        8.257116        1.204649
 O        14.196733        8.144232        3.321377
 O        14.227495        8.161653        7.818560
 O        14.270621       12.703505        7.842458
 O         9.110389        9.084411        7.795845
 O         1.278500        9.027713        3.323965
 O         5.188722       11.836370        1.070532
 O         6.470088       12.718966        3.352113
 O         5.149022       11.873131        5.623962
 O         2.597803        8.139483        5.579227
 O         2.564245       12.744706        5.553916
 O         5.150846        9.054970        1.005879
 O         5.151434        9.132314        5.755417
 O         1.326738       11.795441        7.793665
 O         1.294207       11.779151        3.323858
 O         2.587727       12.708354        1.085064
 O         2.540729        8.128887        1.053280
 O         6.639404        8.770059        3.559372
 O         6.504024        8.111057        7.902993
 O         6.507466       12.730562        7.844044
 O         1.286685        9.059993        7.818466
 O         1.287690        1.734397        3.331769
 O         5.124550        4.374856        1.007475
 O         6.543846        5.213249        3.247505
 O         5.192405        4.513393        5.594079
 O         2.615000        0.866399        5.578914
 O         2.594851        5.390161        5.563963
 O         5.182045        1.656662        1.049322
 O         5.216738        1.763958        5.595655
 O         1.330607        4.485888        7.834782
 O         1.280775        4.471734        3.333176
 O         2.579171        5.384194        1.078477
 O         2.581857        0.843975        1.094017
 O         6.500030        0.865876        3.328491
 O         6.506657        0.865098        7.849793
 O         6.513669        5.386069        7.844051
 O         1.324395        1.744225        7.830065
 O         9.104792        1.720485        3.334936
 O        12.995440        4.487160        1.091082
 O        14.224596        5.397371        3.348624
 O        13.003015        4.478180        5.622908
 O        10.390164        0.916735        5.610756
 O        10.460642        5.437451        5.586790
 O        12.997438        1.757215        1.086101
 O        12.992836        1.747665        5.596072
 O         9.120524        4.530483        7.802032
 O         9.156805        4.447616        3.326112
 O        10.391362        5.380726        1.049659
 O        10.402766        0.884740        1.071744
 O        14.241040        0.825017        3.338272
 O        14.268925        0.842529        7.844154
 O        14.282523        5.405568        7.852077
 O         9.089051        1.787815        7.854310
 O         1.341218        1.766778       12.311764
 O         5.208789        4.469542       10.060272
 O         6.530987        5.400990       12.271124
 O         5.202862        4.498904       14.497369
 O         2.597317        0.857311       14.566545
 O         2.616408        5.412677       14.537449
 O         5.189173        1.739424       10.086976
 O         5.184984        1.763041       14.542597
 O         1.303681        4.505059       16.771603
 O         1.317970        4.500640       12.300989
 O         2.628906        5.407646       10.074044
 O         2.614999        0.812978       10.070220
 O         6.505633        0.858822       12.327055
 O         6.501903        0.811642       16.760941
 O         6.472702        5.390878       16.749130
 O         1.295994        1.762075       16.803011
 O         9.061337        9.070210       12.314588
 O        12.982386       11.809687       10.086766
 O        14.297690       12.731174       12.302877
 O        13.004174       11.811824       14.541732
 O        10.347153        8.149969       14.571378
 O        10.430103       12.751855       14.534927
 O        12.973404        9.071751       10.079432
 O        12.920875        9.078241       14.554682
 O         9.104796       11.815835       16.741730
 O         9.113350       11.808662       12.332294
 O        10.395032       12.718406       10.078313
 O        10.379261        8.188013       10.087014
 O        14.250484        8.169330       12.332296
 O        14.181439        8.151328       16.807396
 O        14.265904       12.695208       16.803030
 O         9.108190        9.071248       16.857534
 O         1.308347        9.070091       12.315890
 O         5.227415       11.786929       10.082291
 O         6.529820       12.719783       12.309060
 O         5.201099       11.794182       14.520114
 O         2.572470        8.149751       14.555978
 O         2.623531       12.723581       14.550091
 O         5.172266        9.047113       10.098670
 O         5.171990        9.062986       14.514722
 O         1.312992       11.805342       16.778122
 O         1.348933       11.812604       12.296238
 O         2.633307       12.675756       10.038904
 O         2.583151        8.154842       10.069062
 O         6.479773        8.139333       12.312066
 O         6.476273        8.149384       16.747030
 O         6.494134       12.685711       16.755783
 O         1.229549        9.062133       16.777657
 H         9.074851        2.734462       12.304008
 H         8.173918        1.476396       12.321506
 H        13.426620        4.844716       10.886518
 H        12.096780        4.850365       10.096797
 H        14.255639        6.388246       12.348915
 H        13.809524        5.126112       13.123323
 H        12.991112        3.546808       14.577602
 H        13.429017        4.806255       15.358400
 H         9.925391        1.207479       13.781145
 H         9.918418        1.199535       15.327156
 H         9.944853        5.081545       15.320074
 H        11.297654        5.087504       14.570292
 H        13.440790        1.468989       10.865187
 H        12.994938        2.732263       10.098163
 H        12.080721        1.452130       14.575139
 H        13.419055        1.422338       15.349874
 H         9.050170        3.535127       16.769468
 H         8.164328        4.800292       16.770861
 H         9.598202        4.845376       11.516558
 H         9.585793        4.834591       13.063956
 H         9.962494        5.143965        9.261629
 H        10.396324        6.407556       10.039614
 H        11.294927        1.184901       10.103527
 H         9.955854        1.182407       10.878506
 H        13.847524        1.198792       13.108842
 H        15.186794        1.204311       12.332479
 H        15.177851        1.137112       16.791416
 H        14.288363       14.472454       16.794325
 H        15.168581        5.083872       16.799063
 H        13.840288        5.075880       17.592607
 H         8.175749        1.414440       16.804995
 H         9.516632        1.449967       17.580078
 H         9.663224        8.612180        2.464887
 H         9.782035        8.521090        4.200731
 H        13.439532       12.122855        1.873269
 H        13.447717       12.124340        0.322933
 H        14.231619       13.658875        3.367639
 H        13.792679       12.400655        4.150853
 H        12.074785       12.160870        5.643237
 H        13.415921       12.119563        6.407489
 H        11.353305        8.425339        5.460670
 H        10.471637        7.118868        5.457369
 H        10.408524       13.771832        5.629714
 H         9.942511       12.545912        4.829463
 H        12.920174       10.034585        1.061187
 H        13.324246        8.751034        0.296785
 H        13.382966        8.754940        6.387362
 H        12.939267       10.027595        5.626652
 H         9.536170       12.180680        7.047042
 H         8.191126       12.140296        7.807242
 H         8.143456       12.237086        3.341469
 H         9.096770       11.039248        3.335274
 H         9.963484       12.488736        1.836582
 H        11.309488       12.410363        1.080610
 H         9.848816        8.558979        0.400691
 H        11.225374        8.561936        1.135669
 H        13.719853        8.474919        2.554278
 H        13.749837        8.488306        4.099665
 H        15.134943        8.485826        7.834496
 H        13.802757        8.489096        8.619267
 H        14.261884       13.666626        7.864682
 H        13.817856       12.406010        8.639335
 H         9.114273       10.050002        7.772061
 H         9.546210        8.788508        7.000641
 H         0.372565        8.705938        3.302528
 H         1.705745        8.702673        2.524157
 H         5.652210       12.139678        0.281357
 H         5.188130       10.876445        1.022770
 H         6.003623       12.396125        2.573056
 H         5.987670       12.405110        4.124514
 H         5.113138       10.915125        5.694821
 H         4.234268       12.177874        5.603486
 H         2.144488        8.436951        4.783454
 H         2.587350        7.176368        5.553017
 H         2.116843       12.436900        4.758487
 H         2.562962       13.708385        5.531512
 H         5.654249        8.783600        1.763152
 H         5.629805        8.725041        0.233784
 H         4.264869        8.756750        5.700097
 H         5.580626        8.757464        6.532721
 H         0.422098       12.125511        7.800117
 H         1.741348       12.143615        6.996441
 H         0.378793       12.077991        3.325514
 H         1.270800       10.816564        3.326329
 H         3.497318       12.392394        1.103367
 H         2.156091       12.368038        1.875618
 H         3.453209        8.430946        1.045151
 H         2.576338        7.165945        1.059715
 H         8.313317        8.755214        3.435290
 H         6.116548        8.938480        4.367546
 H         7.411389        8.424280        7.875008
 H         6.536935        7.147040        7.883864
 H         6.048859       12.391050        8.620288
 H         6.010790       12.428013        7.076400
 H         1.740555        8.744951        7.029958
 H         1.314400       10.022646        7.784068
 H         1.769545        1.427366        4.106512
 H         1.765450        1.411543        2.559406
 H         5.129040        3.410278        0.994171
 H         5.623637        4.619092        1.789628
 H         7.466883        4.924936        3.282065
 H         6.588328        6.130070        3.004999
 H         4.284565        4.835153        5.553381
 H         5.629722        4.813655        4.794624
 H         2.179873        1.187923        6.376102
 H         3.521631        1.189430        5.604102
 H         2.121486        5.050070        4.796973
 H         2.137456        5.058073        6.343560
 H         5.665387        1.335232        0.279760
 H         5.668575        1.373234        1.830386
 H         5.215501        2.726551        5.578480
 H         5.666696        1.475187        4.794825
 H         0.430377        4.826623        7.862625
 H         1.773238        4.817097        8.623452
 H         1.253048        3.508861        3.328107
 H         0.368501        4.777616        3.333108
 H         2.143811        5.056197        1.872004
 H         3.474242        5.027155        1.086201
 H         3.506138        1.117277        1.080837
 H         2.587425       14.482810        1.087329
 H         7.420413        1.150450        3.326479
 H         6.508907       14.506254        3.346402
 H         6.057385        1.163076        7.051584
 H         6.497025       14.504118        7.830326
 H         6.037913        5.078181        7.065578
 H         6.041749        5.043788        8.612111
 H         0.408250        1.446908        7.833617
 H         1.301701        2.707200        7.837678
 H         9.568824        1.425883        2.543129
 H         9.127764        2.683008        3.315050
 H        13.406225        4.815231        1.898805
 H        12.089439        4.809985        1.088934
 H        14.209450        6.359364        3.362255
 H        13.789312        5.098263        4.153935
 H        13.467193        4.772987        6.414388
 H        13.021771        3.514194        5.626137
 H         9.909199        1.243163        6.379221
 H         9.918246        1.217956        4.826129
 H         9.993233        5.115224        6.367094
 H        11.354969        5.074595        5.627913
 H        13.448835        1.452301        0.291185
 H        13.012231        2.720121        1.065380
 H        12.077880        1.446751        5.577976
 H        13.413549        1.413494        4.796245
 H         9.099847        3.567279        7.823597
 H         8.200953        4.817553        7.813260
 H         9.625414        4.797708        4.088801
 H         9.601344        4.784466        2.540483
 H        10.332404        6.334736        1.054703
 H         9.915894        5.080832        0.263874
 H        10.436109       14.524525        1.048288
 H        11.317467        1.187799        1.073405
 H        13.814515        1.160781        2.541892
 H        15.148806        1.147744        3.320728
 H        13.798804        1.182520        8.613154
 H        13.800068        1.160339        7.065217
 H        14.254189        6.367515        7.858106
 H        13.829653        5.110727        8.650581
 H         8.186436        1.451284        7.873460
 H         9.528255        1.453301        8.643487
 H         1.803402        1.437852       13.090606
 H         1.803675        1.419810       11.541793
 H         5.172113        3.506520       10.070683
 H         4.298311        4.783689       10.070213
 H         6.090979        5.056457       11.486680
 H         7.437989        5.078613       12.250145
 H         5.664854        4.830109       15.275476
 H         5.686039        4.820603       13.729155
 H         2.593608       14.496281       14.584888
 H         2.137002        1.153914       15.358856
 H         3.523980        5.091889       14.502159
 H         2.175227        5.083228       13.747279
 H         5.632303        1.419852        9.293594
 H         4.289468        1.395849       10.059330
 H         4.267231        1.471572       14.556590
 H         5.172341        2.726419       14.531759
 H         1.768607        4.834476       17.548798
 H         1.781735        4.828842       16.000742
 H         1.300874        3.537488       12.299186
 H         0.402695        4.799174       12.310531
 H         2.609287        6.370155       10.090914
 H         2.164177        5.109047       10.863376
 H         2.156712        1.119689        9.280697
 H         2.606365       14.452316       10.039850
 H         6.029098        1.177021       11.553119
 H         6.026311        1.181776       13.098312
 H         6.039847        1.131058       15.978711
 H         6.489208       14.450953       16.720434
 H         6.002290        5.072060       17.525320
 H         6.459350        6.352626       16.787767
 H         1.307098        2.725175       16.810324
 H         1.755352        1.470473       17.598217
 H         8.143903        8.777224       12.316527
 H         9.051621       10.033350       12.330994
 H        13.424052       12.142441       10.875913
 H        12.079132       12.143288       10.107574
 H        15.214446       12.435244       12.297217
 H        14.315727       13.694011       12.311550
 H        13.468948       12.102254       13.750053
 H        12.980951       10.848913       14.520611
 H         9.885361        8.450934       13.782311
 H        10.352946        7.186782       14.539301
 H        11.345840       12.453859       14.538204
 H        10.444611       13.715441       14.541042
 H        12.955920       10.035144       10.082042
 H        12.055533        8.780366       10.088912
 H        13.349325        8.742928       15.349447
 H        12.015188        8.749897       14.571384
 H         9.565245       12.156734       17.514532
 H         9.577174       12.154094       15.973063
 H         9.578645       12.130199       11.553242
 H         9.591945       12.144671       13.098327
 H        10.379438       13.681602       10.058289
 H         9.937270       12.417520        9.287212
 H         9.921309        8.519000        9.310272
 H         9.893172        8.505128       10.857181
 H        13.768867        8.499238       13.098317
 H        13.787725        8.494456       11.552868
 H        14.227170        7.188950       16.799253
 H        15.092243        8.467118       16.801847
 H        15.172879       12.370378       16.774588
 H        13.834175       12.373686       16.003813
 H         9.115149       10.033792       16.801231
 H         9.555885        8.749898       16.066961
 H         0.401467        8.747726       12.343960
 H         1.743892        8.735173       13.107932
 H         5.684738       12.095901       10.871730
 H         5.226303       10.824682       10.115991
 H         7.448690       12.431772       12.320103
 H         6.540396       13.683130       12.316915
 H         5.668890       12.097621       13.734799
 H         5.198335       10.830925       14.490796
 H         2.572937        7.186696       14.577109
 H         2.104854        8.448091       15.342949
 H         2.190262       12.398259       13.753759
 H         3.528123       12.393307       14.523272
 H         4.262733        8.730900       10.065926
 H         5.618963        8.703375        9.318427
 H         5.598980        8.709783       13.726107
 H         4.267285        8.734198       14.517004
 H         1.791358       12.133840       16.009464
 H         1.777649       12.130642       17.556726
 H         1.344226       10.849486       12.289741
 H         1.805039       12.092221       11.495172
 H         3.541270       12.355016       10.028371
 H         2.206079       12.348522        9.240267
 H         2.118158        8.486196       10.845109
 H         2.111007        8.483979        9.297333
 H         6.013727        8.432148       11.521205
 H         6.495639        7.176383       12.281759
 H         7.376442        8.485739       16.760708
 H         6.054637        8.486474       15.948503
 H         6.056466       12.346401       15.966942
 H         7.401704       12.365385       16.730959
 H         1.267213       10.024446       16.792114
 H         1.692819        8.756450       17.564766
