384
 generated by VMD
 O         9.075499        1.765466       12.348353
 O        12.978233        4.525933       10.080737
 O        14.295391        5.401616       12.317485
 O        12.997821        4.503222       14.560097
 O        10.400155        0.848031       14.566133
 O        10.401093        5.385595       14.562688
 O        12.932598        1.782325       10.079897
 O        12.993010        1.763216       14.550255
 O         9.109307        4.455105       16.788862
 O         9.085258        4.498908       12.318183
 O        10.391182        5.418401       10.086728
 O        10.358990        0.847711       10.102851
 O        14.247087        0.840956       12.293918
 O        14.270329        0.841457       16.798487
 O        14.277340        5.423762       16.795851
 O         9.061140        1.733168       16.788929
 O         9.312370        8.851625        3.360900
 O        13.100718       11.765546        1.054499
 O        14.317193       12.693808        3.312109
 O        12.981380       11.793792        5.535654
 O        10.468663        8.073639        5.676554
 O        10.369694       12.651097        5.568336
 O        13.053820        9.033898        1.067306
 O        13.021242        9.047622        5.608902
 O         9.041579       11.788654        7.812650
 O         9.361768       11.604615        3.211602
 O        10.572342       12.711164        1.022228
 O        10.499370        8.029653        1.037215
 O        14.307253        8.156584        3.346134
 O        14.301483        8.130561        7.862032
 O        14.180334       12.734883        7.818384
 O         9.081068        9.049185        7.840944
 O         1.351416        9.126059        3.277712
 O         5.034691       12.124983        0.867456
 O         5.530871       13.126555        3.433745
 O         5.020299       11.769073        5.719151
 O         2.626673        8.235764        5.556186
 O         2.486055       12.733636        5.608410
 O         5.355860        8.825660        1.089898
 O         5.248651        9.043865        5.598699
 O         1.210230       11.807343        7.845642
 O         1.370309       11.858741        3.217063
 O         2.607230       12.763753        0.997717
 O         2.665553        8.171629        1.059404
 O         6.662342        8.049459        3.430445
 O         6.498958        8.143963        7.861585
 O         6.458623       12.738060        7.840913
 O         1.349774        9.068307        7.834487
 O         1.298053        1.797284        3.358790
 O         5.188286        4.629200        1.078938
 O         6.528655        5.351504        3.370155
 O         5.178443        4.627853        5.632994
 O         2.560918        0.884305        5.600241
 O         2.594274        5.486741        5.598843
 O         5.198283        1.917669        1.063034
 O         5.097115        1.913870        5.704811
 O         1.341691        4.509361        7.828647
 O         1.306466        4.538715        3.360875
 O         2.573396        5.448110        1.103285
 O         2.620295        0.969487        1.072935
 O         6.342656        1.131540        3.423670
 O         6.473978        0.890300        7.839633
 O         6.525634        5.416767        7.873049
 O         1.257741        1.771744        7.836592
 O         9.043717        1.729550        3.355039
 O        12.992263        4.469897        1.072055
 O        14.250548        5.413366        3.333107
 O        13.015644        4.466899        5.596979
 O        10.342649        0.794676        5.583143
 O        10.420219        5.352726        5.643477
 O        12.968694        1.721408        1.083699
 O        12.930363        1.727677        5.549529
 O         9.097776        4.472343        7.865405
 O         9.134030        4.464981        3.369993
 O        10.394383        5.321019        1.088410
 O        10.371963        0.850395        1.107424
 O        14.263418        0.827615        3.327301
 O        14.202019        0.876414        7.828398
 O        14.285331        5.391521        7.836091
 O         9.071654        1.732902        7.851100
 O         1.304189        1.752974       12.290673
 O         5.186007        4.484936       10.068209
 O         6.503832        5.418974       12.282731
 O         5.222703        4.470865       14.516897
 O         2.593447        0.874386       14.526509
 O         2.642869        5.409211       14.567680
 O         5.169416        1.745141       10.099710
 O         5.191041        1.739447       14.541107
 O         1.321085        4.516915       16.793869
 O         1.339780        4.495460       12.334908
 O         2.609985        5.423675       10.083080
 O         2.578831        0.823944       10.057675
 O         6.503185        0.831144       12.319238
 O         6.470275        0.892518       16.821121
 O         6.527879        5.356357       16.748320
 O         1.284260        1.786655       16.753580
 O         9.122820        9.058604       12.350352
 O        12.920727       11.796771       10.060058
 O        14.224180       12.698230       12.293147
 O        12.954470       11.779125       14.546143
 O        10.443061        8.132364       14.570289
 O        10.367612       12.707018       14.544237
 O        12.975513        9.059295       10.068496
 O        13.016229        9.045963       14.535232
 O         9.104218       11.819284       16.806494
 O         9.069715       11.795153       12.310725
 O        10.335441       12.707193       10.061108
 O        10.383746        8.159325       10.089761
 O        14.284289        8.136977       12.285767
 O        14.344418        8.154332       16.763664
 O        14.302225       12.702941       16.746111
 O         9.162692        9.040008       16.808823
 O         1.328943        9.053211       12.305136
 O         5.166846       11.823903       10.083342
 O         6.471197       12.700776       12.324359
 O         5.183524       11.876812       14.584262
 O         2.644639        8.152349       14.529006
 O         2.602266       12.745465       14.498646
 O         5.216578        9.079179       10.099726
 O         5.226114        9.085758       14.556841
 O         1.351122       11.864154       16.757488
 O         1.273978       11.789452       12.310760
 O         2.557859       12.687601       10.060333
 O         2.633227        8.157248       10.070653
 O         6.532286        8.164523       12.322066
 O         6.599432        8.074944       16.727047
 O         6.264018       12.837904       16.831770
 O         1.385733        9.100216       16.771078
 H         9.089123        2.728888       12.358731
 H         9.543992        1.468587       13.135693
 H        13.460500        4.842954       10.851733
 H        13.450166        4.845679        9.304047
 H        15.197942        5.065853       12.345311
 H        13.854808        5.078329       13.110643
 H        12.089282        4.822789       14.575805
 H        13.425933        4.846285       15.352031
 H        10.419427       14.487280       14.551185
 H        11.315761        1.145923       14.563894
 H         9.934732        5.046482       15.334469
 H         9.924472        5.069521       13.788279
 H        13.378448        1.480883        9.280735
 H        12.957066        2.745102       10.060707
 H        13.005156        2.726322       14.573503
 H        13.445291        1.462201       15.345139
 H         8.204562        4.784754       16.806595
 H         9.540625        4.771398       17.591120
 H         8.182633        4.833274       12.284613
 H         9.531184        4.827583       11.530024
 H        10.408611        6.381580       10.087708
 H        11.309276        5.126334       10.089816
 H        11.259387        1.189905       10.115870
 H         9.927027        1.173247       10.899482
 H        13.771951        1.184269       11.529446
 H        13.792477        1.173648       13.075270
 H        13.797794        1.123845       17.590122
 H        14.260939       14.480395       16.797041
 H        13.818349        5.124125       17.588295
 H        14.286036        6.386802       16.814474
 H         9.537209        1.430097       16.008373
 H         9.088778        2.696988       16.769732
 H         9.722003        8.526775        2.551793
 H         9.369865        9.809582        3.301394
 H        12.190233       12.084579        1.032740
 H        13.060427       10.802686        1.062785
 H        13.862953       12.355032        2.531773
 H        13.837669       12.362859        4.079625
 H        12.977200       10.830744        5.565121
 H        12.059228       12.071897        5.545890
 H        10.039104        8.361129        4.861453
 H         9.957332        8.430625        6.409766
 H         9.886639       12.317895        6.332242
 H         9.937798       12.301143        4.784084
 H        13.540117        8.712425        0.300975
 H        13.508999        8.712709        1.852864
 H        13.468556        8.726858        6.398674
 H        12.121564        8.703866        5.650954
 H         9.502090       12.096067        8.600196
 H         9.056553       10.825636        7.844281
 H         8.440374       11.661986        2.957248
 H         9.830688       11.983128        2.456773
 H        10.487620       13.670091        1.051266
 H        10.046942       12.413074        0.273555
 H        10.033271        8.406569        0.283332
 H        11.394663        8.382944        1.019860
 H        14.275909        7.194293        3.365838
 H        13.851073        8.460748        4.138205
 H        15.217667        8.426263        7.853768
 H        14.318301        7.167475        7.849292
 H        14.175632       13.698005        7.803137
 H        13.750471       12.436963        7.009454
 H         8.177547        8.716128        7.864035
 H         9.515391        8.725643        8.636956
 H         0.455665        8.772357        3.278918
 H         1.791546        8.778902        2.494797
 H         5.562906       12.448518        0.015302
 H         4.058744       12.394589        0.917223
 H         5.342311       12.618625        4.239394
 H         5.493111       12.330874        1.688736
 H         5.540362       12.086200        6.465604
 H         5.135993       10.813448        5.672771
 H         3.544198        8.528429        5.538395
 H         2.209786        8.565110        4.753831
 H         2.108451       12.420170        4.781342
 H         3.367133       12.348795        5.668748
 H         5.538131        9.757670        1.172455
 H         5.805950        8.554333        0.278508
 H         5.756573        8.728577        4.844800
 H         5.691733        8.708282        6.385739
 H         1.623442       12.147749        7.045558
 H         0.303474       12.134047        7.839547
 H         1.352289       10.894258        3.235792
 H         0.448789       12.144574        3.250368
 H         2.120321       12.442354        0.220709
 H         2.154972       12.422940        1.786906
 H         2.636059        7.208160        1.071258
 H         3.596966        8.411727        1.070415
 H         7.568601        8.372996        3.391195
 H         6.243629        8.332088        2.613691
 H         6.493306        7.181045        7.894659
 H         6.044187        8.454549        8.651209
 H         6.492303       13.700293        7.827304
 H         7.369761       12.425614        7.826363
 H         1.305299       10.030297        7.823036
 H         1.799881        8.803255        7.025134
 H         1.782962        1.500914        2.583611
 H         1.767525        1.459338        4.129682
 H         5.638279        4.914604        1.881832
 H         4.280658        4.947223        1.126290
 H         6.601094        6.313963        3.397230
 H         7.433666        5.022399        3.365130
 H         5.675764        4.887208        4.848795
 H         5.672940        4.940413        6.398477
 H         3.469136        1.203388        5.640257
 H         2.588552       14.524550        5.604918
 H         3.517788        5.210408        5.600501
 H         2.602000        6.449530        5.582145
 H         5.614346        1.679170        1.898432
 H         5.183173        2.882799        1.046911
 H         5.109939        2.877259        5.738599
 H         5.594606        1.592600        6.464710
 H         1.801094        4.865684        7.060252
 H         1.802027        4.839929        8.607148
 H         1.762676        4.853863        4.148510
 H         1.319137        3.576694        3.395810
 H         2.114993        5.100484        0.330667
 H         2.110573        5.117295        1.880233
 H         2.649939       14.614890        1.052681
 H         3.532442        1.282474        1.067377
 H         5.927632        1.482762        4.220593
 H         6.094631       14.812349        3.424573
 H         7.384436        1.205796        7.865155
 H         6.048604        1.195696        8.647356
 H         6.075698        5.062984        8.647695
 H         7.426744        5.075904        7.888444
 H         1.714622        1.472060        7.043582
 H         1.296083        2.734317        7.824351
 H         8.120563        1.465995        3.396045
 H         9.470440        1.374329        4.142043
 H        12.981376        3.507114        1.069429
 H        12.069654        4.749027        1.081715
 H        15.159616        5.095462        3.319652
 H        13.825063        5.078463        2.537045
 H        13.444902        4.773147        4.791257
 H        12.997950        3.504986        5.556228
 H         9.898875        1.094588        6.382706
 H        10.332240       14.433750        5.600023
 H        10.447347        6.316496        5.663800
 H        11.336033        5.056106        5.631970
 H        12.056014        1.414076        1.115274
 H        13.401299        1.396982        1.880511
 H        13.369413        1.389593        4.762190
 H        12.027093        1.394475        5.534927
 H         9.574232        4.789238        7.089468
 H         9.568606        4.814469        8.633002
 H         9.134544        3.502050        3.389082
 H         9.585589        4.759931        4.167448
 H        10.417603        6.285007        1.087100
 H         9.950879        5.049303        1.899060
 H         9.898159        1.167092        0.331903
 H         9.877760        1.150569        1.876859
 H        15.169659        1.152186        3.338946
 H        14.311655       14.467782        3.321118
 H        15.107586        1.204672        7.809347
 H        13.774102        1.193235        7.025874
 H        15.190369        5.062522        7.817478
 H        13.853594        5.055172        7.043033
 H         9.098706        2.696006        7.866552
 H         9.526805        1.435313        8.646060
 H         1.736504        1.415902       11.498057
 H         0.397457        1.428086       12.271023
 H         4.273776        4.794179       10.070036
 H         5.153666        3.522492       10.083470
 H         6.495807        6.381823       12.273922
 H         6.035502        5.123340       11.494805
 H         5.227133        3.508647       14.483604
 H         5.674303        4.783833       13.725760
 H         2.129829        1.204183       13.748007
 H         2.115828        1.203805       15.295539
 H         3.545026        5.073202       14.581753
 H         2.206050        5.085173       15.362753
 H         4.270968        1.399308       10.103859
 H         5.607167        1.412326       10.889750
 H         5.612405        1.437120       15.351191
 H         4.281040        1.423463       14.557187
 H         1.281933        3.554676       16.772530
 H         0.408354        4.826708       16.787022
 H         1.803936        4.784747       13.127666
 H         1.347373        3.532718       12.337883
 H         2.156330        5.126829       10.878605
 H         2.605216        6.386985       10.099277
 H         2.553556       14.463194       10.033362
 H         2.118754        1.135627        9.271068
 H         6.066240        1.156945       13.112827
 H         7.404955        1.170518       12.339488
 H         6.059636        1.267224       17.609709
 H         7.389533        1.189590       16.817207
 H         6.030541        5.097383       17.530882
 H         6.055057        5.015230       15.981651
 H         1.730473        1.494061       17.553570
 H         0.384583        1.440522       16.793879
 H         9.587954        8.760587       13.139341
 H         9.122848       10.021482       12.365774
 H        13.363294       12.101178        9.260708
 H        12.949580       10.833730       10.044302
 H        13.761495       12.405955       11.500082
 H        14.218271       13.661339       12.277944
 H        12.985792       10.816102       14.524296
 H        13.397903       12.087056       13.748507
 H         9.991729        8.438993       15.364842
 H        10.414045        7.170031       14.588816
 H        11.265652       12.358621       14.537059
 H         9.937828       12.382749       13.745502
 H        13.447683        8.727664       10.839944
 H        13.446151        8.722065        9.298270
 H        13.440906        8.713358       13.737122
 H        12.113899        8.706927       14.532438
 H         9.487871       12.157063       15.988804
 H         8.208088       12.139663       16.859306
 H         9.492110       12.124886       11.509679
 H         8.160977       12.112033       12.296148
 H        11.248434       12.399989       10.062272
 H        10.368271       13.669573       10.075093
 H        11.288104        8.490473       10.096280
 H         9.961704        8.488047       10.890498
 H        14.309005        7.173820       12.296462
 H        15.199877        8.436288       12.294062
 H        13.896504        8.478802       15.974819
 H        15.244319        8.494946       16.737785
 H        13.866238       12.351165       17.531839
 H        13.813680       12.369114       15.985573
 H         9.116577        9.999183       16.838472
 H         8.252741        8.723806       16.797113
 H         1.803088        8.737928       11.527948
 H         1.804069        8.722568       13.075150
 H         5.604391       12.159884        9.293931
 H         4.254625       12.130617       10.050863
 H         6.480748       13.664147       12.300121
 H         6.004952       12.410158       11.532605
 H         4.271513       12.183091       14.514488
 H         5.632511       12.169673       13.781551
 H         2.635672        7.189722       14.562895
 H         2.197894        8.462347       15.323848
 H         2.128602       12.431936       13.719327
 H         2.579153       13.708956       14.476928
 H         5.216753       10.041881       10.112587
 H         5.684981        8.789095       10.889712
 H         4.313359        8.777893       14.547405
 H         5.193924       10.045175       14.580045
 H         0.434108       12.165683       16.724352
 H         1.776514       12.182082       15.952415
 H         1.267686       10.825941       12.316503
 H         0.355122       12.079128       12.304504
 H         2.074011       12.359793        9.294463
 H         2.094518       12.361117       10.838997
 H         2.204948        8.488845        9.273518
 H         3.537362        8.488670       10.060144
 H         6.097722        8.498261       13.113437
 H         7.442489        8.479092       12.351928
 H         6.576892        7.112373       16.683222
 H         6.113376        8.405089       15.965746
 H         5.879246       12.518480       15.997101
 H         6.344771       13.806442       16.789501
 H         1.848546        8.803408       17.562811
 H         1.388150       10.061257       16.788410
