384
 generated by VMD
 O         9.096874        1.744230       12.320405
 O        12.981910        4.503547       10.071480
 O        14.243925        5.414962       12.325111
 O        12.947367        4.478336       14.557539
 O        10.367549        0.826417       14.576572
 O        10.369473        5.412405       14.565824
 O        13.031466        1.771619       10.014877
 O        12.939061        1.738932       14.531869
 O         9.093427        4.503146       16.792995
 O         9.106278        4.482970       12.329247
 O        10.391148        5.398679       10.088550
 O        10.425498        0.876485       10.056120
 O        14.240770        0.846997       12.292818
 O        14.258209        0.838428       16.748346
 O        14.265318        5.404620       16.770479
 O         9.096048        1.763822       16.801458
 O         9.076410        9.048742        3.351465
 O        12.953924       11.796760        1.073636
 O        14.262951       12.729595        3.298104
 O        12.994991       11.841065        5.571224
 O        10.374661        8.162625        5.591123
 O        10.386580       12.689939        5.559097
 O        12.957236        9.048518        1.106483
 O        12.967587        9.087063        5.588459
 O         9.171756       11.682831        7.820738
 O         9.085079       11.777258        3.309901
 O        10.363735       12.701412        1.069620
 O        10.383726        8.126612        1.129346
 O        14.271455        8.168447        3.352885
 O        14.261583        8.168839        7.832562
 O        14.245717       12.776038        7.831295
 O         9.120235        8.967865        7.878189
 O         1.323947        9.084605        3.378417
 O         5.183952       11.804860        1.052559
 O         6.467342       12.669922        3.322763
 O         5.190010       11.760460        5.562583
 O         2.600953        8.203532        5.625615
 O         2.600856       12.739863        5.608021
 O         5.168063        9.064958        1.051757
 O         5.216517        9.025027        5.573170
 O         1.289171       11.864760        7.838357
 O         1.311416       11.828193        3.365510
 O         2.607041       12.711191        1.108050
 O         2.586617        8.149285        1.135799
 O         6.480067        8.168985        3.291188
 O         6.499959        8.171564        7.860836
 O         6.572038       12.477922        7.835247
 O         1.296594        9.129186        7.844502
 O         1.392694        1.808866        3.326740
 O         5.176403        4.510814        1.072104
 O         6.497620        5.437545        3.290356
 O         5.142494        4.665301        5.576640
 O         2.872369        0.804370        5.600110
 O         2.555780        5.478993        5.577108
 O         5.232884        1.796864        1.090736
 O         5.230273        1.495411        5.403701
 O         1.330126        4.516631        7.811501
 O         1.302962        4.519968        3.351641
 O         2.598259        5.418958        1.100556
 O         2.639524        0.864575        1.082128
 O         6.422193        0.916289        3.293288
 O         7.026889        0.537126        7.098485
 O         6.495160        5.452786        7.889549
 O         1.463044        1.765851        7.695118
 O         9.020409        1.709987        3.295963
 O        12.975005        4.513410        1.066929
 O        14.255030        5.434243        3.316550
 O        12.981886        4.503736        5.567437
 O        10.469314        0.835339        5.479827
 O        10.392311        5.425144        5.560219
 O        12.977839        1.768271        1.037555
 O        13.045959        1.763331        5.484549
 O         9.107758        4.534585        7.824618
 O         9.074491        4.491994        3.321243
 O        10.381602        5.386870        1.098662
 O        10.385819        0.844117        1.084548
 O        14.320105        0.868426        3.236040
 O        14.345080        0.914186        7.740905
 O        14.264046        5.418891        7.827007
 O         9.271114        1.802561        7.758304
 O         1.258492        1.785963       12.370008
 O         5.172571        4.634884       10.175920
 O         6.535381        5.452361       12.408778
 O         5.185987        4.478846       14.593031
 O         2.585906        0.854825       14.580815
 O         2.606848        5.407432       14.542940
 O         4.962088        1.854267       10.282338
 O         5.187680        1.743587       14.618550
 O         1.326576        4.500859       16.786837
 O         1.297405        4.521496       12.308267
 O         2.565701        5.474679       10.067627
 O         2.452118        0.853025       10.098533
 O         6.482176        0.850730       12.375622
 O         6.521176        0.850812       16.847483
 O         6.502348        5.416017       16.785160
 O         1.299770        1.767529       16.813496
 O         9.088305        9.091756       12.358377
 O        12.981590       11.822507       10.077723
 O        14.271577       12.716852       12.315348
 O        12.974845       11.816447       14.545877
 O        10.395432        8.147151       14.564671
 O        10.377082       12.682115       14.564915
 O        12.969204        9.079596       10.086327
 O        12.965616        9.083838       14.569352
 O         9.068391       11.770188       16.781538
 O         9.075738       11.829227       12.311360
 O        10.391620       12.711451       10.062974
 O        10.395151        8.130980       10.146465
 O        14.235000        8.148208       12.336366
 O        14.250650        8.149993       16.811060
 O        14.270731       12.709917       16.791998
 O         9.111423        9.031834       16.813427
 O         1.291305        9.042105       12.340582
 O         5.168706       11.766779       10.123630
 O         6.475378       12.711886       12.343267
 O         5.174564       11.800854       14.582657
 O         2.609213        8.148253       14.577306
 O         2.577573       12.704989       14.580433
 O         5.184918        9.031015       10.105038
 O         5.194283        9.069138       14.581000
 O         1.303012       11.781590       16.827414
 O         1.309216       11.778173       12.338210
 O         2.568747       12.709158       10.104712
 O         2.578398        8.201985       10.071522
 O         6.502936        8.181265       12.345206
 O         6.519764        8.153340       16.792702
 O         6.510098       12.717413       16.794611
 O         1.307452        9.043530       16.825228
 H         8.188366        1.426834       12.333707
 H         9.518680        1.407542       13.117762
 H        13.412251        4.831219       10.868659
 H        12.073710        4.823706       10.096408
 H        14.224330        6.377723       12.353758
 H        13.785276        5.102973       13.112167
 H        12.034264        4.784644       14.563424
 H        12.919234        3.515571       14.547558
 H        10.389962       14.465689       14.576139
 H        11.284383        1.123373       14.558779
 H         9.925267        5.109788       13.765724
 H        10.372057        6.375497       14.538227
 H        13.032321        2.735289       10.013274
 H        13.492434        1.493516        9.217477
 H        13.400969        1.418359       13.749423
 H        13.424648        1.409602       15.296049
 H         8.187781        4.829784       16.774847
 H         9.524766        4.842599       16.000101
 H         9.552861        4.778456       11.528545
 H         9.112345        3.519899       12.311022
 H         9.936820        5.123705        9.285461
 H        10.382512        6.361867       10.096272
 H        11.332585        1.198356       10.080696
 H         9.987786        1.190059       10.854092
 H        13.832502        1.173240       11.483613
 H        15.138247        1.198372       12.308815
 H        15.170084        1.147445       16.773596
 H        14.289551       14.477455       16.764448
 H        15.172405        5.082533       16.748804
 H        13.826006        5.066071       15.982611
 H         9.103709        2.727102       16.775478
 H         9.548337        1.459082       16.006416
 H         9.498353        8.730571        4.157552
 H         8.168856        8.726291        3.358577
 H        12.037725       12.093744        1.071831
 H        12.931668       10.833974        1.084439
 H        13.800179       12.418833        2.512465
 H        14.271268       13.691177        3.253873
 H        12.085259       12.155302        5.541374
 H        13.423878       12.163209        4.771790
 H         9.931818        8.424913        6.405698
 H        10.385303        7.199487        5.587076
 H         9.911590       12.359996        4.789560
 H         9.946603       12.326474        6.334759
 H        13.400101        8.738429        1.903172
 H        12.055476        8.710478        1.139439
 H        12.050200        8.794257        5.583944
 H        12.954011       10.049665        5.583529
 H         9.603673       12.019008        8.613110
 H         9.197748       10.720140        7.867916
 H         8.169037       12.067223        3.318975
 H         9.068966       10.813101        3.319892
 H         9.897481       12.369725        1.844426
 H         9.895169       12.363459        0.298773
 H         9.917701        8.426957        1.917112
 H        10.365269        7.163863        1.143653
 H        13.834553        8.498277        4.145208
 H        15.176687        8.496519        3.377718
 H        14.257622        7.205853        7.812212
 H        13.797506        8.464490        7.042542
 H        14.259440       13.737853        7.784306
 H        13.802961       12.467053        7.033650
 H         8.201706        8.677357        7.898874
 H         9.540390        8.647740        8.683764
 H         1.329059       10.047311        3.390577
 H         1.778183        8.795794        4.177896
 H         5.668623       12.137491        0.288150
 H         5.654155       12.106857        1.835062
 H         6.446920       13.625901        3.331167
 H         6.012743       12.375539        4.120970
 H         4.290195       12.095531        5.623525
 H         5.643157       12.007949        6.375090
 H         3.518237        8.496826        5.641114
 H         2.175519        8.547134        6.419106
 H         2.126799       12.412462        4.834480
 H         2.124521       12.423098        6.385973
 H         5.180273       10.027292        1.024884
 H         5.639956        8.760940        0.268731
 H         5.655721        8.727304        4.769486
 H         5.213770        9.986803        5.540442
 H         1.724413       12.171476        8.642194
 H         0.387229       12.203170        7.860959
 H         1.754685       12.145017        2.571524
 H         0.403107       12.147055        3.320267
 H         3.522040       12.409687        1.088499
 H         2.635412       13.672736        1.093936
 H         3.491006        8.480653        1.127822
 H         2.169139        8.490575        1.934198
 H         6.021932        8.472445        2.500307
 H         6.477011        7.206490        3.260855
 H         6.482555        7.207302        7.856195
 H         6.060028        8.457659        7.054146
 H         7.475178       12.134886        7.847027
 H         6.679660       13.411668        7.692727
 H         0.387477        8.810920        7.835056
 H         1.258725       10.091766        7.844158
 H         1.375957        2.774456        3.366162
 H         1.855428        1.506657        4.105848
 H         4.271870        4.843399        1.099361
 H         5.620203        4.845128        1.858752
 H         6.057002        5.152549        4.095514
 H         7.399210        5.099410        3.326152
 H         4.219025        4.957062        5.582068
 H         5.112454        3.717964        5.641377
 H         2.748370       14.440746        5.618791
 H         2.413461        1.165280        6.379501
 H         2.123757        5.163076        6.380280
 H         2.545478        6.442608        5.616127
 H         5.221042        2.761810        1.052877
 H         5.693049        1.483840        0.300939
 H         4.248120        1.169956        5.511186
 H         5.676988        1.265882        4.510801
 H         0.417668        4.822937        7.843163
 H         1.761843        4.850922        8.605869
 H         1.723813        4.877394        4.142301
 H         0.394170        4.841452        3.353641
 H         2.140045        5.114161        1.890679
 H         2.581846        6.382292        1.131123
 H         2.217912        1.207752        1.876447
 H         3.541826        1.197881        1.086582
 H         6.009196        1.250341        2.476494
 H         7.346998        1.211357        3.294027
 H         7.852880        1.014448        7.312499
 H         5.804538        1.187677        6.124504
 H         5.998935        5.153853        7.124189
 H         6.025570        5.128753        8.665951
 H         1.445586        2.728825        7.740740
 H         1.822762        1.464537        8.537389
 H         9.499526        1.397187        2.518927
 H         9.520782        1.400367        4.058733
 H        12.986983        3.550886        1.045914
 H        13.432611        4.809405        0.272189
 H        13.800109        5.139155        2.520939
 H        14.247252        6.397572        3.305448
 H        13.012150        3.542149        5.525328
 H        13.431803        4.823429        4.778433
 H        10.090656        1.177607        6.294617
 H        10.429688       14.476540        5.539739
 H         9.955062        5.085791        4.773330
 H        11.293489        5.085150        5.546190
 H        12.074484        1.434736        1.041776
 H        13.396177        1.430397        0.237922
 H        13.482782        1.444805        4.687678
 H        12.148903        1.414725        5.460895
 H         9.525773        4.873426        7.026036
 H         8.197116        4.845726        7.822489
 H         9.540704        4.786007        2.529813
 H         9.070734        3.531579        3.296104
 H        11.290841        5.069488        1.067781
 H         9.948402        5.070981        0.298073
 H         9.932354        1.152541        0.291717
 H        10.367822       14.483437        1.057312
 H        15.220663        1.202160        3.231521
 H        13.881812        1.206692        2.446857
 H        13.910892        1.228166        6.940422
 H        15.256529        1.216889        7.699445
 H        13.792459        5.092188        8.600599
 H        13.801214        5.080839        7.053690
 H         9.202604        2.763639        7.803738
 H         9.666006        1.503183        8.586248
 H         1.293756        2.748837       12.367264
 H         1.736729        1.486712       13.150545
 H         5.651999        4.919976       10.961599
 H         5.098575        3.680072       10.240804
 H         6.093027        5.098010       13.186885
 H         7.430689        5.098325       12.402665
 H         4.272557        4.783073       14.564708
 H         5.161611        3.515853       14.595690
 H         2.152943        1.189248       15.373647
 H         3.495939        1.167982       14.610282
 H         2.602281        6.370513       14.533985
 H         2.143704        5.120861       13.747938
 H         4.058324        1.506824       10.242304
 H         5.320966        1.668588        9.421294
 H         5.667067        1.423590       15.389209
 H         5.659968        1.415084       13.845418
 H         1.785787        4.842939       17.560766
 H         1.798301        4.826849       16.012285
 H         0.390477        4.845785       12.295767
 H         1.724285        4.856880       11.512081
 H         2.570280        6.438275       10.061095
 H         3.489532        5.204111       10.101396
 H         2.486844       14.492616       10.121969
 H         1.989142        1.142217       10.892500
 H         6.461297       14.490231       12.334592
 H         5.964326        1.167199       11.630578
 H         6.541615       14.489438       16.834469
 H         7.436842        1.151417       16.826031
 H         6.025379        5.081404       16.016783
 H         6.027317        5.097172       17.558760
 H         1.316211        2.731113       16.825514
 H         1.769917        1.471800       17.599710
 H         8.173366        8.789330       12.347876
 H         9.059802       10.054447       12.341462
 H        13.436843       12.173832        9.305495
 H        13.457118       12.143689       10.851850
 H        15.185812       12.413022       12.321256
 H        14.292411       13.680296       12.304104
 H        13.442308       12.149222       15.319292
 H        13.446040       12.146980       13.772795
 H        11.296716        8.486385       14.543227
 H         9.947033        8.496653       13.786507
 H         9.942780       12.374720       13.761793
 H        11.285017       12.361707       14.534553
 H        13.421800        8.770327        9.294629
 H        12.989158       10.042076       10.057199
 H        12.986418       10.047065       14.586199
 H        13.422751        8.780065       15.360620
 H         9.094744       10.807119       16.773262
 H         9.538403       12.066826       15.993863
 H         9.505720       12.156293       11.514415
 H         8.170032       12.156926       12.299729
 H        11.308929       12.417034       10.082715
 H        10.415544       13.673123       10.050678
 H        11.294487        8.475461       10.145503
 H         9.959087        8.478623       10.931679
 H        13.769241        8.492840       13.105930
 H        13.778641        8.484462       11.557847
 H        14.238202        7.187164       16.812525
 H        13.788217        8.437441       17.605795
 H        13.820633       12.381054       17.577446
 H        15.170319       12.365845       16.824659
 H         9.584676        8.702946       16.041193
 H         9.577451        8.706715       17.590647
 H         1.735443        8.707541       13.126539
 H         0.387582        8.709903       12.363640
 H         5.172617       10.802782       10.114712
 H         5.646491       12.039275        9.336413
 H         6.008995       12.385356       13.119991
 H         6.002429       12.370637       11.576411
 H         5.155439       10.837358       14.583748
 H         4.259175       12.099026       14.585306
 H         3.513181        8.480098       14.595213
 H         2.175233        8.473253       15.372903
 H         2.565707       13.667729       14.593602
 H         2.125254       12.408737       15.377112
 H         5.619989        8.719636        9.304008
 H         4.273881        8.719952       10.069759
 H         5.678818        8.739344       15.345524
 H         5.662023        8.751681       13.800506
 H         1.317923       10.818257       16.843872
 H         1.762910       12.082101       17.618177
 H         1.759119       12.077597       13.135508
 H         1.307450       10.814977       12.361735
 H         2.146888       12.359568       10.897666
 H         3.476557       12.389940       10.114495
 H         2.111393        8.551373        9.304879
 H         2.112360        8.516012       10.853361
 H         6.034802        8.453790       11.548347
 H         6.505993        7.217860       12.350375
 H         7.438540        8.442868       16.804146
 H         6.533509        7.190134       16.790194
 H         7.406781       12.364615       16.762999
 H         6.056071       12.394118       16.008329
 H         0.400896        8.717818       16.835546
 H         1.730326        8.711093       17.624027
