384
 generated by VMD
 O         9.112660        1.662128       12.331529
 O        12.967818        4.508348       10.055942
 O        14.224926        5.416808       12.310827
 O        12.989547        4.469263       14.567292
 O        10.392316        0.795291       14.600611
 O        10.390122        5.342873       14.581641
 O        12.988688        1.764955       10.105092
 O        12.960342        1.736313       14.608537
 O         9.070691        4.478309       16.828371
 O         9.142246        4.387193       12.324940
 O        10.366112        5.415067       10.056245
 O        10.412139        0.859805       10.065289
 O        14.231491        0.820053       12.360895
 O        14.282264        0.857038       16.839556
 O        14.262892        5.396583       16.813477
 O         9.115793        1.734210       16.833286
 O         9.113339        9.050311        3.349504
 O        12.976604       11.802994        1.105249
 O        14.250270       12.711808        3.349659
 O        12.937901       11.799618        5.580957
 O        10.372993        8.121684        5.607934
 O        10.358214       12.728128        5.534164
 O        12.988776        9.061512        1.123357
 O        12.935240        9.063053        5.583655
 O         9.083012       11.831849        7.784770
 O         9.073780       11.795300        3.293592
 O        10.393237       12.716978        1.079326
 O        10.409931        8.139133        1.108294
 O        14.251992        8.141470        3.373217
 O        14.199505        8.175679        7.837825
 O        14.244522       12.707858        7.805399
 O         9.097295        9.085792        7.874075
 O         1.295008        9.035122        3.336610
 O         5.219877       11.811122        1.107684
 O         6.499600       12.730766        3.319503
 O         5.192712       11.829928        5.532364
 O         2.598533        8.150858        5.569077
 O         2.589804       12.695281        5.545971
 O         5.202436        9.071076        1.136661
 O         5.177143        9.087058        5.505179
 O         1.288925       11.791380        7.789505
 O         1.292903       11.774089        3.315620
 O         2.624827       12.702733        1.104295
 O         2.619907        8.145675        1.104521
 O         6.531680        8.143621        3.324018
 O         6.520300        8.156477        7.706407
 O         6.490590       12.737501        7.760506
 O         1.273374        9.053150        7.805468
 O         1.326128        1.738320        3.320284
 O         5.169053        4.472617        1.094811
 O         6.505704        5.405430        3.302890
 O         5.186182        4.471878        5.509757
 O         2.606580        0.831208        5.565455
 O         2.601102        5.404942        5.561982
 O         5.210225        1.736765        1.079983
 O         5.198414        1.734337        5.552373
 O         1.305358        4.502567        7.807044
 O         1.312578        4.481001        3.328431
 O         2.585893        5.399671        1.090301
 O         2.629424        0.834487        1.082515
 O         6.526999        0.863377        3.318971
 O         6.506534        0.859358        7.796562
 O         6.489547        5.400435        7.731043
 O         1.296534        1.762011        7.790537
 O         9.109112        1.772861        3.370297
 O        12.974067        4.504768        1.112609
 O        14.274199        5.401593        3.356913
 O        12.978672        4.509304        5.600332
 O        10.388775        0.862698        5.598916
 O        10.389959        5.397268        5.591822
 O        12.973091        1.769590        1.127128
 O        12.966801        1.770778        5.604446
 O         9.082088        4.520598        7.831492
 O         9.102753        4.506330        3.345942
 O        10.383391        5.398201        1.103533
 O        10.392741        0.849976        1.141584
 O        14.260211        0.848446        3.359078
 O        14.243967        0.841414        7.841278
 O        14.266701        5.436314        7.828736
 O         9.097100        1.775188        7.839431
 O         1.273719        1.747862       12.306179
 O         5.155696        4.432965        9.960867
 O         6.551565        5.212218       12.237796
 O         5.174455        4.478684       14.560732
 O         2.602648        0.873107       14.549440
 O         2.588678        5.405085       14.543019
 O         5.182236        1.713863       10.026454
 O         5.208528        1.737241       14.547503
 O         1.302130        4.500249       16.786676
 O         1.280080        4.486715       12.302469
 O         2.580312        5.398840       10.064642
 O         2.576421        0.868445       10.046819
 O         6.491279        0.834225       12.274818
 O         6.522921        0.848671       16.783033
 O         6.477286        5.399282       16.822727
 O         1.327103        1.759006       16.803749
 O         9.139002        9.341105       12.163384
 O        12.965397       11.818624       10.045617
 O        14.264648       12.674678       12.316749
 O        12.994617       11.782459       14.561297
 O        10.438376        8.128198       14.677814
 O        10.424321       12.678596       14.482622
 O        12.867581        9.091764       10.111020
 O        13.052214        9.046234       14.629572
 O         9.123465       11.788805       16.788023
 O         9.260738       11.793169       12.254329
 O        10.367770       12.753440       10.021527
 O        10.268827        8.385625       10.192001
 O        14.238540        8.173417       12.300163
 O        14.300514        8.124338       16.857424
 O        14.272274       12.714957       16.814362
 O         9.076628        9.051148       16.824043
 O         1.298723        9.064484       12.283398
 O         5.178203       11.825748       10.003000
 O         6.483231       12.674724       12.309996
 O         5.214735       11.887367       14.604810
 O         2.595416        8.154634       14.552303
 O         2.605074       12.736715       14.545069
 O         5.172211        9.053147        9.896890
 O         5.150044        9.159106       14.729256
 O         1.331655       11.811432       16.804451
 O         1.325532       11.819267       12.277695
 O         2.584793       12.736882       10.024462
 O         2.569392        8.130867       10.025037
 O         6.566900        8.864138       12.489340
 O         6.488234        8.145939       16.870754
 O         6.530643       12.715081       16.835220
 O         1.337882        9.070623       16.804195
 H         9.524953        1.340923       13.140274
 H         8.197881        1.361067       12.333261
 H        12.064740        4.838405       10.026936
 H        13.409800        4.839238        9.266243
 H        13.775746        5.122851       11.511026
 H        14.223024        6.378905       12.290043
 H        12.079855        4.784919       14.557165
 H        13.406444        4.809924       13.768474
 H        11.290044        1.146736       14.615368
 H         9.956880        1.129122       15.393192
 H         9.941377        5.045866       13.782267
 H        10.377568        6.302211       14.573103
 H        13.434028        1.468097       10.905581
 H        13.002996        2.727865       10.110686
 H        13.429729        1.451333       15.400170
 H        12.983566        2.699765       14.604267
 H         9.504169        4.789245       16.026945
 H         8.165413        4.805912       16.801712
 H         9.575539        4.702019       11.526334
 H         9.166068        3.423260       12.303507
 H         9.888728        5.135000        9.264057
 H        10.281729        6.364349       10.102521
 H        11.316925        1.191131       10.097331
 H         9.976516        1.153774       10.872766
 H        13.779455        1.110172       13.160507
 H        14.223610       14.459619       12.364571
 H        15.199792        1.151552       16.828543
 H        14.299724       14.496475       16.833763
 H        15.168771        5.067221       16.791475
 H        13.832080        5.069510       16.016592
 H         9.564772        1.447193       17.636084
 H         9.108589        2.697206       16.848785
 H         9.569433        8.718814        4.129864
 H         9.592167        8.720797        2.581809
 H        12.071568       12.132312        1.121489
 H        13.406765       12.141948        1.898202
 H        13.786861       12.411880        4.138803
 H        14.247872       13.674992        3.375187
 H        12.024753       12.105347        5.564574
 H        12.909081       10.836624        5.578023
 H        10.363542        7.157792        5.631523
 H         9.927814        8.427607        6.403167
 H        10.358579       13.691489        5.525699
 H         9.905785       12.435775        4.736054
 H        13.431600        8.762871        1.925264
 H        12.998544       10.024646        1.139917
 H        13.384266        8.727486        4.799671
 H        12.037661        8.713596        5.563903
 H         8.175754       12.155643        7.758517
 H         9.511892       12.148946        6.981699
 H         8.155957       12.087226        3.300603
 H         9.065044       10.832636        3.315655
 H         9.922460       12.402390        1.859052
 H        10.382452       13.679755        1.120928
 H         9.963598        8.476781        0.325791
 H        11.313025        8.473873        1.083965
 H        14.276792        7.178267        3.366816
 H        15.169258        8.437467        3.363289
 H        13.718756        8.501381        8.602643
 H        13.735718        8.495937        7.055602
 H        15.149578       12.377958        7.778199
 H        13.802371       12.379398        7.014786
 H         9.061801       10.048085        7.825002
 H         8.185863        8.772586        7.823824
 H         1.771168        8.710670        2.564727
 H         1.770888        8.718833        4.112655
 H         5.649017       12.157806        1.898826
 H         4.312030       12.132789        1.121658
 H         6.509779       13.694226        3.337795
 H         6.035898       12.442661        4.114218
 H         5.625366       12.157637        6.328524
 H         4.282920       12.145248        5.557671
 H         2.158290        8.479134        6.359854
 H         3.497624        8.495860        5.578477
 H         2.122902       12.357902        4.773856
 H         2.121006       12.364400        6.319302
 H         5.670715        8.770920        1.923890
 H         5.219595       10.034163        1.149878
 H         5.645494        8.782685        4.720738
 H         5.197213       10.049717        5.490238
 H         1.298634       10.828608        7.825132
 H         1.744416       12.104200        8.578087
 H         1.268580       10.811190        3.318369
 H         0.379768       12.079651        3.324810
 H         2.160686       12.377799        0.325050
 H         2.145371       12.367056        1.869200
 H         3.522650        8.480780        1.100801
 H         2.194009        8.486252        0.310631
 H         6.540660        7.180075        3.318900
 H         7.450683        8.431858        3.333778
 H         6.056195        8.457107        6.916865
 H         6.499517        7.193248        7.697186
 H         6.489291       13.701536        7.787069
 H         6.038441       12.440299        8.556090
 H         0.362760        8.742960        7.831184
 H         1.705808        8.706855        8.594207
 H         0.418317        1.417501        3.305664
 H         1.757726        1.405958        2.526005
 H         5.154324        3.509498        1.093576
 H         4.253209        4.770127        1.095894
 H         6.033523        5.073144        2.532101
 H         6.032069        5.070566        4.072556
 H         5.160644        3.509024        5.524167
 H         4.273313        4.777761        5.528871
 H         2.157862        1.135731        4.769227
 H         2.587171       14.470523        5.538903
 H         2.139829        5.112421        4.768817
 H         2.594805        6.367676        5.550968
 H         5.684341        1.419952        0.303808
 H         5.693803        1.421187        1.851004
 H         5.637543        1.422517        6.350888
 H         4.297695        1.394107        5.576083
 H         1.766367        4.803935        7.016856
 H         1.309636        3.539873        7.778292
 H         1.333193        3.518269        3.312262
 H         1.763335        4.782992        2.532270
 H         2.131447        5.113380        0.290797
 H         2.590246        6.362689        1.077832
 H         3.546496        1.129633        1.088500
 H         2.649097       14.473372        1.089948
 H         7.429536        1.197848        3.357877
 H         6.076276        1.185569        4.107113
 H         6.059452        1.175724        8.589859
 H         7.409643        1.191535        7.832796
 H         6.015661        5.077769        8.503581
 H         6.023667        5.054298        6.961948
 H         1.735281        1.419769        7.004279
 H         0.394715        1.425200        7.777862
 H         9.117943        2.736217        3.381144
 H         9.562602        1.479667        4.168547
 H        12.067087        4.827900        1.088603
 H        13.407077        4.831073        0.316302
 H        15.175329        5.061058        3.328669
 H        13.832540        5.078500        2.564514
 H        13.442034        4.852933        6.372067
 H        13.452361        4.832486        4.826274
 H         9.953431        1.187589        6.394453
 H        11.294109        1.192416        5.623351
 H        11.296148        5.070126        5.575103
 H         9.957130        5.072892        4.794812
 H        12.984107        2.732602        1.099071
 H        13.434536        1.464695        0.338549
 H        13.421009        1.464770        6.396874
 H        12.989222        2.733682        5.625792
 H         8.173173        4.838688        7.785184
 H         9.527196        4.834360        7.036863
 H         8.195456        4.828187        3.317412
 H         9.537040        4.832716        2.550097
 H        10.379364        6.360940        1.080749
 H         9.918573        5.098300        0.314577
 H         9.960738        1.182875        1.936144
 H        11.297619        1.180148        1.157207
 H        13.801123        1.186230        4.135120
 H        13.787601        1.182944        2.588960
 H        13.804415        1.137262        8.644904
 H        14.229308       14.480474        7.850591
 H        14.278901        6.398917        7.836272
 H        15.183247        5.138697        7.823468
 H         9.101218        2.738307        7.856258
 H         9.559053        1.482378        8.631528
 H         0.375250        1.403970       12.349323
 H         1.727722        1.434607       13.095392
 H         5.622561        4.696339       10.757110
 H         4.263233        4.789844       10.029875
 H         6.619723        6.139368       12.045279
 H         7.468768        4.901351       12.265412
 H         5.189263        3.515125       14.548843
 H         5.649370        4.759728       13.775420
 H         3.520865        1.163524       14.545178
 H         2.620367       14.512147       14.546643
 H         2.152955        5.072837       13.751012
 H         3.493530        5.076160       14.520064
 H         5.150753        2.677426        9.996335
 H         4.265041        1.419711       10.034740
 H         5.693398        1.414762       15.314979
 H         5.671650        1.415600       13.767857
 H         1.324492        3.537212       16.776518
 H         1.759784        4.797099       15.992383
 H         1.249943        3.523919       12.307219
 H         0.367781        4.793599       12.311374
 H         2.108195        5.066056       10.835333
 H         2.117253        5.067698        9.287796
 H         2.111402        1.203335        9.272773
 H         2.105648        1.190831       10.822422
 H         6.032768        1.142963       11.485069
 H         6.462747       14.476243       12.250609
 H         6.545191       14.488351       16.802864
 H         7.439383        1.144976       16.802532
 H         6.011531        5.078229       16.044430
 H         6.002485        5.056165       17.588140
 H         1.791802        1.435500       16.024111
 H         1.806875        1.427183       17.570520
 H         9.583660        8.932890       11.316376
 H         9.220534       10.376295       12.189053
 H        13.411042       12.131113        9.249212
 H        12.068988       12.165196       10.012133
 H        13.832913       12.365590       11.514305
 H        15.177692       12.367183       12.280999
 H        13.458308       12.066198       13.765150
 H        13.026323       10.819589       14.572147
 H        10.003398        8.478677       13.910350
 H         9.937756        8.453943       15.439972
 H        10.435561       13.643211       14.531086
 H        11.343078       12.384727       14.522093
 H        13.353907        8.784548       10.885406
 H        12.930735       10.054162       10.107904
 H        12.154197        8.709862       14.675622
 H        13.501598        8.718747       15.418581
 H         9.597094       12.133622       17.554245
 H         9.585128       12.103614       16.006712
 H         9.666630       12.183487       11.460463
 H         9.716696       12.141334       13.041725
 H         9.904573       12.456915        9.228556
 H        10.373031       13.719523       10.002096
 H         9.850886        8.633106        9.349119
 H        11.207100        8.636312       10.143944
 H        15.147890        8.492943       12.297128
 H        13.844176        8.478927       13.123129
 H        13.842155        8.429090       17.648191
 H        14.274842        7.160853       16.867203
 H        13.800768       12.383979       17.586563
 H        13.806449       12.386815       16.038963
 H         9.057924       10.014320       16.817131
 H         8.161177        8.749153       16.844086
 H         1.756527        8.759579       11.492877
 H         1.323042       10.026603       12.261526
 H         5.633807       12.078810       10.809924
 H         5.180622       10.864242        9.974814
 H         7.389409       12.375661       12.337311
 H         6.061920       12.377445       13.125884
 H         5.173814       10.929770       14.688077
 H         5.677829       12.198317       15.391898
 H         2.153804        8.456695       13.751987
 H         2.587962        7.191615       14.524398
 H         3.518217       12.435209       14.584542
 H         2.171291       12.403794       15.337744
 H         5.655254        8.720993        9.128046
 H         5.656018        8.757074       10.658270
 H         5.587439        8.776579       15.500384
 H         4.264289        8.782637       14.677303
 H         0.415787       12.108848       16.806757
 H         1.308393       10.848391       16.799318
 H         1.788098       12.159513       11.503920
 H         1.793477       12.149355       13.051257
 H         2.599213       13.700529       10.024137
 H         3.501361       12.444309       10.014536
 H         3.484163        8.422026        9.980749
 H         2.590937        7.166836       10.043655
 H         6.061831        9.008101       13.313434
 H         8.200595        9.096750       12.246970
 H         6.472745        7.182416       16.872648
 H         6.038493        8.438536       17.672527
 H         6.090520       12.383649       17.626768
 H         7.429970       12.373533       16.843908
 H         0.439530        8.723466       16.809122
 H         1.756541        8.739099       16.002552
