384
 generated by VMD
 O         9.048720        1.755286       12.272021
 O        12.940413        4.510430       10.068143
 O        14.241283        5.444530       12.292085
 O        12.945993        4.526299       14.520695
 O        10.373546        0.817964       14.488358
 O        10.338026        5.140144       14.684529
 O        12.983190        1.772252       10.048635
 O        12.974290        1.766056       14.503646
 O         9.212527        4.232264       16.661695
 O         9.088758        4.478306       12.398537
 O        10.356908        5.424403       10.104632
 O        10.388724        0.876290       10.034033
 O        14.275834        0.838505       12.278302
 O        14.282142        0.865639       16.772095
 O        14.388074        5.411266       16.698980
 O         9.091472        1.762799       16.830309
 O         9.069645        9.099749        3.379508
 O        12.980597       11.848791        1.069017
 O        14.233534       12.699165        3.348256
 O        12.941652       11.798646        5.598102
 O        10.375106        8.155039        5.605151
 O        10.355317       12.707316        5.606380
 O        13.055502        9.118966        1.097466
 O        12.969820        9.060821        5.611726
 O         9.079550       11.795824        7.852844
 O         9.073078       11.839688        3.342224
 O        10.390950       12.749754        1.095233
 O        10.402242        8.264670        1.078123
 O        14.289650        8.176343        3.373441
 O        14.278677        8.125340        7.833952
 O        14.290492       12.713396        7.807996
 O         9.082458        9.053313        7.857693
 O         1.337127        9.085969        3.365217
 O         5.158208       11.813709        1.077521
 O         6.472026       12.697888        3.316539
 O         5.209369       11.814932        5.583173
 O         2.631299        8.165070        5.601814
 O         2.620586       12.711314        5.548937
 O         5.175221        9.070395        1.128425
 O         5.205790        9.087000        5.630563
 O         1.342761       11.789829        7.801883
 O         1.289663       11.817481        3.321021
 O         2.581252       12.719937        1.092004
 O         2.592668        8.155874        1.121745
 O         6.471304        8.166188        3.385061
 O         6.501126        8.155578        7.859117
 O         6.497395       12.714001        7.828486
 O         1.325840        9.052438        7.849962
 O         1.318888        1.751643        3.355314
 O         5.181363        4.511993        1.117076
 O         6.407955        5.427273        3.393825
 O         5.141990        4.479865        5.614934
 O         2.602343        0.847483        5.599719
 O         2.580758        5.430274        5.583346
 O         5.191988        1.770190        1.094374
 O         5.194795        1.741955        5.583154
 O         1.332293        4.519436        7.827678
 O         1.348806        4.497540        3.328772
 O         2.589591        5.405560        1.071653
 O         2.612305        0.854860        1.115169
 O         6.488610        0.829059        3.331150
 O         6.496883        0.849528        7.824577
 O         6.498385        5.404105        7.813843
 O         1.363039        1.785738        7.851020
 O         9.098948        1.699422        3.353957
 O        13.178560        4.546904        1.111613
 O        14.325009        5.437536        3.389712
 O        12.960714        4.481072        5.578298
 O        10.395109        0.837167        5.604018
 O        10.374437        5.413450        5.593728
 O        12.997103        1.770526        1.081699
 O        12.987495        1.733703        5.594324
 O         9.090905        4.511513        7.830249
 O         8.928947        4.432686        3.466893
 O         9.867996        5.160595        1.074003
 O        10.391687        0.914030        1.071533
 O        14.270985        0.828383        3.345975
 O        14.320013        0.853855        7.829244
 O        14.256516        5.383504        7.822114
 O         9.076283        1.777400        7.815926
 O         1.323311        1.759995       12.312640
 O         5.237136        4.500063       10.059866
 O         6.516551        5.430467       12.299622
 O         5.171759        4.505471       14.493206
 O         2.629556        0.861849       14.552486
 O         2.624250        5.427258       14.455579
 O         5.227293        1.760217       10.075888
 O         5.229328        1.766485       14.583845
 O         1.424259        4.480855       16.725033
 O         1.290070        4.508041       12.254729
 O         2.646283        5.392737       10.060278
 O         2.646057        0.867428       10.092696
 O         6.484727        0.823407       12.327578
 O         6.572345        0.883599       16.855165
 O         6.394422        5.420977       16.719730
 O         1.354861        1.748910       16.797863
 O         9.060010        9.051604       12.319311
 O        12.963987       11.800501       10.024848
 O        14.248043       12.696743       12.274918
 O        12.982635       11.796486       14.537422
 O        10.368686        8.140260       14.545530
 O        10.404904       12.710789       14.530858
 O        12.974978        9.055211       10.066959
 O        12.988376        9.065701       14.553687
 O         9.087296       11.888562       16.785917
 O         9.093328       11.796803       12.293951
 O        10.393356       12.736520       10.069530
 O        10.384341        8.154948       10.096023
 O        14.282944        8.181973       12.308167
 O        14.314386        8.175760       16.769384
 O        14.285303       12.730535       16.765406
 O         9.082878        9.149860       16.790110
 O         1.333228        9.072254       12.321973
 O         5.193988       11.820753       10.066007
 O         6.499939       12.698050       12.307067
 O         5.203192       11.852109       14.569927
 O         2.634732        8.161333       14.549960
 O         2.621414       12.730542       14.502055
 O         5.187366        9.077691       10.078993
 O         5.197522        9.118201       14.572534
 O         1.337801       11.814975       16.760700
 O         1.304055       11.806356       12.279712
 O         2.604452       12.727748       10.056041
 O         2.614295        8.134247       10.099294
 O         6.464593        8.171307       12.322918
 O         6.494421        8.214350       16.822180
 O         6.478269       12.764028       16.820704
 O         1.354624        9.082133       16.789618
 H         9.496840        1.407560       13.049561
 H         8.148781        1.409735       12.298781
 H        13.383173        4.851934       10.852672
 H        12.037330        4.843096       10.095725
 H        14.279672        6.407432       12.297693
 H        15.151984        5.131157       12.278625
 H        13.439105        4.845991       15.285876
 H        13.403189        4.866302       13.741707
 H        10.392118       14.453682       14.504683
 H         9.936147        1.089892       15.294018
 H         9.903831        4.884987       13.852368
 H        11.286170        4.933291       14.609578
 H        12.952818        2.735140       10.053859
 H        12.068267        1.471786       10.040135
 H        12.061414        1.465143       14.501648
 H        12.951675        2.728098       14.511835
 H         9.178312        3.207019       16.718592
 H         9.736526        4.605268       15.835675
 H         9.041687        3.516500       12.332827
 H         8.181105        4.803471       12.368874
 H         9.915854        5.123071       10.902868
 H        10.352072        6.388250       10.127846
 H         9.914093        1.197927        9.259215
 H         9.906194        1.195835       10.802704
 H        13.803036        1.174236       13.047057
 H        13.815241        1.179681       11.503949
 H        14.273435       14.504185       16.747690
 H        13.828014        1.164757       15.978871
 H        14.002823        5.090878       17.517546
 H        15.295671        5.085820       16.693905
 H         8.176934        1.429395       16.862667
 H         9.551584        1.437889       17.623699
 H         9.083618       10.062840        3.351638
 H         9.523224        8.802050        2.586752
 H        13.019807       10.885707        1.057620
 H        13.444885       12.149400        0.280494
 H        13.770696       12.382854        2.564741
 H        13.753428       12.371334        4.116034
 H        13.393499       12.137315        6.377998
 H        12.038264       12.130792        5.628465
 H         9.906875        8.476734        6.382588
 H         9.904792        8.494362        4.836393
 H         9.901061       12.417547        4.808114
 H        10.356582       13.670391        5.587985
 H        12.144835        8.814536        1.107338
 H        13.467864        8.781742        1.900379
 H        12.939098       10.023708        5.613808
 H        12.055356        8.759177        5.605283
 H         9.550785       12.138883        8.619718
 H         9.544436       12.121899        7.074550
 H         9.515442       12.167800        2.553188
 H         8.161856       12.150073        3.302533
 H        11.302962       12.437371        1.084631
 H        10.429664       13.709907        1.092982
 H        10.469211        7.323044        0.980150
 H         9.947871        8.573735        0.282707
 H        13.844536        8.501946        4.162745
 H        15.191225        8.514192        3.398863
 H        14.260145        7.162805        7.801812
 H        13.815638        8.437399        7.048692
 H        15.202426       12.403644        7.801291
 H        14.326209       13.675755        7.821485
 H         9.094688       10.016258        7.877821
 H         9.548563        8.755824        8.646227
 H         1.813153        8.758722        4.135426
 H         1.790960        8.742226        2.587709
 H         4.240484       12.108186        1.086733
 H         5.141257       10.850838        1.095730
 H         6.459033       13.660850        3.300632
 H         6.007177       12.401819        2.526395
 H         4.302710       12.140180        5.555176
 H         5.638064       12.129923        4.780062
 H         2.188907        8.480611        6.396796
 H         3.533973        8.500111        5.634769
 H         2.598493       13.674212        5.552176
 H         2.151313       12.424254        4.758359
 H         5.645605        8.748987        1.904615
 H         5.659842        8.755402        0.358634
 H         5.667523        8.789076        6.421455
 H         5.217755       10.050533        5.640346
 H         1.351249       10.826711        7.797701
 H         1.798074       12.079316        7.004501
 H         1.286612       10.854005        3.337087
 H         0.368737       12.099601        3.336118
 H         2.100450       12.385740        1.857810
 H         2.122730       12.398283        0.308531
 H         2.608761        7.193435        1.102509
 H         3.510290        8.448847        1.117655
 H         6.041626        8.506120        4.177739
 H         7.375382        8.496284        3.399381
 H         6.514341        7.193246        7.838400
 H         7.420103        8.445713        7.860516
 H         6.067842       12.389510        7.029776
 H         7.400284       12.378031        7.819720
 H         0.422602        8.717803        7.859866
 H         1.754752        8.721542        8.645792
 H         1.749583        1.430402        4.154685
 H         0.415551        1.417796        3.371080
 H         5.631064        4.857387        0.343120
 H         5.632635        4.858832        1.894906
 H         6.420362        6.390818        3.420188
 H         5.931598        5.125686        4.175975
 H         5.128867        3.516877        5.599590
 H         4.225981        4.778785        5.619245
 H         2.183505        1.185423        6.398765
 H         3.511061        1.165891        5.607758
 H         2.591535        6.393528        5.564132
 H         2.145385        5.134228        4.776539
 H         4.278052        1.462883        1.100070
 H         5.161597        2.732457        1.103286
 H         5.667251        1.414204        6.355930
 H         5.663565        1.415070        4.808682
 H         1.745966        4.855212        7.024359
 H         0.420577        4.829338        7.819228
 H         1.783053        4.784534        2.517891
 H         1.344360        3.534576        3.319810
 H         3.496317        5.083771        1.073434
 H         2.186961        5.081509        0.258151
 H         2.153088        1.147976        1.910023
 H         2.594408       14.493448        1.125970
 H         6.057345        1.178579        2.544632
 H         7.401951        1.132014        3.311141
 H         6.492613       14.488400        7.845199
 H         6.044186        1.145342        8.621596
 H         7.404750        5.080236        7.783886
 H         6.049664        5.069133        7.030373
 H         1.820215        1.492357        8.646212
 H         1.368268        2.749178        7.860565
 H         9.045006        2.657170        3.427167
 H         9.554883        1.395276        4.147307
 H        13.583151        4.879866        1.927533
 H        12.368434        5.030225        1.009241
 H        15.241623        5.139035        3.383915
 H        14.339834        6.401530        3.391433
 H        13.441702        4.789948        4.803424
 H        12.980128        3.518545        5.553655
 H         9.955261        1.179635        6.389369
 H        11.303295        1.158098        5.625378
 H        11.286659        5.104981        5.569913
 H        10.403753        6.376576        5.588233
 H        13.448340        1.469581        0.284771
 H        13.050758        2.729704        1.077456
 H        13.476887        1.417670        6.361086
 H        13.444595        1.399385        4.815226
 H         9.574705        4.844728        7.066054
 H         9.542000        4.840282        8.613992
 H         8.031717        4.785975        3.514737
 H         9.426019        4.801614        4.205917
 H         9.510686        4.870259        1.936344
 H         9.514550        4.600469       -0.431566
 H        11.301227        1.235569        1.093486
 H         9.969173        1.207434        1.887710
 H        13.821631        1.133981        2.552043
 H        14.246443       14.467117        3.325605
 H        15.220347        1.194773        7.859148
 H        13.871018        1.187337        8.612820
 H        13.777274        5.067935        8.595342
 H        13.790231        5.046852        7.049333
 H         9.053529        2.740408        7.815535
 H         8.162201        1.473458        7.812358
 H         1.757798        1.443248       13.111300
 H         0.422069        1.420235       12.326161
 H         5.251462        3.536901       10.049988
 H         5.688473        4.793617        9.260499
 H         6.487198        6.393876       12.289520
 H         6.070095        5.129367       11.500188
 H         4.264012        4.831892       14.447015
 H         5.624986        4.838328       13.710127
 H         3.535808        1.183604       14.579891
 H         2.200276        1.174370       15.356806
 H         2.140050        5.141697       13.672926
 H         2.607928        6.390763       14.469140
 H         5.654899        1.425291       10.870726
 H         4.318613        1.439537       10.099348
 H         5.695411        1.495385       15.378931
 H         5.225091        2.729593       14.571407
 H         1.862703        4.774746       15.919912
 H         1.416647        3.517879       16.716770
 H         1.768415        4.789209       11.466789
 H         1.306927        3.545367       12.261271
 H         2.212855        5.082618        9.257611
 H         3.550263        5.060840       10.039690
 H         2.617101       14.506567       10.092847
 H         2.176065        1.157871       10.882061
 H         6.474309       14.461560       12.339446
 H         6.036804        1.121741       13.125309
 H         6.076424        1.180644       17.628075
 H         6.526014       14.520843       16.853243
 H         7.270690        5.062877       16.652885
 H         5.930008        5.113004       15.927407
 H         1.770903        1.427390       17.605230
 H         0.444114        1.436605       16.808472
 H         8.139668        8.766058       12.315128
 H         9.050920       10.014875       12.319374
 H        12.974877       10.837432       10.016417
 H        13.437485       12.092239        9.238234
 H        14.244900       13.659698       12.259496
 H        13.792906       12.404891       11.477843
 H        13.426711       12.090513       13.734993
 H        12.994518       10.832881       14.526137
 H         9.900203        8.409977       13.746202
 H        10.331974        7.188755       14.589643
 H         9.962574       12.407669       15.331375
 H        11.307136       12.371751       14.560403
 H        13.437398        8.708609        9.296257
 H        13.455536        8.744162       10.841972
 H        13.426838        8.739566       15.348386
 H        12.089891        8.726122       14.575457
 H         9.524860       12.202106       17.584820
 H         8.178164       12.203334       16.819687
 H         9.564042       12.135218       11.524496
 H         9.563335       12.121980       13.068591
 H        11.307069       12.431486       10.052069
 H        10.417121       13.699140       10.059500
 H        11.291481        8.479053       10.115437
 H         9.943306        8.492884       10.882880
 H        13.843669        8.499988       13.104403
 H        15.188037        8.510942       12.337756
 H        14.313598        7.212964       16.771914
 H        13.862129        8.458488       17.570911
 H        13.847947       12.389928       15.977831
 H        15.189474       12.398800       16.743589
 H         9.541960        8.837866       16.005339
 H         9.093782       10.113159       16.760277
 H         1.805681        8.748509       13.096581
 H         1.796650        8.728172       11.550246
 H         5.628459       12.150688        9.272187
 H         4.289648       12.152303       10.048244
 H         6.060874       12.373555       11.513166
 H         7.404988       12.369803       12.283010
 H         4.295360       12.173266       14.523856
 H         5.645569       12.154770       13.770077
 H         3.534654        8.504443       14.575710
 H         2.196707        8.481959       15.346188
 H         2.604976       13.693490       14.495210
 H         2.152897       12.433919       13.714697
 H         5.655064        8.772154        9.294052
 H         5.193472       10.040421       10.049197
 H         5.660315        8.825760       15.364095
 H         5.206648       10.081634       14.588494
 H         1.359659       10.851613       16.750160
 H         1.796746       12.113549       15.969242
 H         1.295839       10.843122       12.298243
 H         0.384754       12.093853       12.279206
 H         2.146037       12.394205        9.277614
 H         2.129761       12.388781       10.823212
 H         3.524813        8.448062       10.083977
 H         2.651647        7.171953       10.088706
 H         5.995974        8.507210       11.550711
 H         6.004003        8.507663       13.098969
 H         6.505359        7.255845       16.787981
 H         7.412077        8.508231       16.813255
 H         6.002654       12.412539       17.582132
 H         6.017494       12.443025       16.037655
 H         1.771357        8.752512       17.592514
 H         0.446541        8.758284       16.798607
