384
 generated by VMD
 O         9.083636        1.759238       12.283852
 O        12.966199        4.530602       10.089573
 O        14.279747        5.406185       12.330643
 O        12.968467        4.483320       14.560121
 O        10.394746        0.852626       14.522221
 O        10.372162        5.370985       14.526681
 O        12.973711        1.792344       10.064590
 O        12.976987        1.741662       14.557737
 O         9.114001        4.483564       16.805758
 O         9.055020        4.500951       12.283061
 O        10.371252        5.405762       10.061085
 O        10.392430        0.850026       10.058083
 O        14.273527        0.862942       12.301096
 O        14.248906        0.834952       16.805264
 O        14.245173        5.408214       16.805061
 O         9.102800        1.736419       16.788525
 O         9.114020        9.061865        3.310384
 O        12.922506       11.809927        1.110570
 O        14.187982       12.748034        3.332467
 O        12.925603       11.819724        5.581389
 O        10.387590        8.135201        5.549714
 O        10.331727       12.713621        5.491556
 O        12.976694        9.067931        1.084923
 O        12.941677        9.076818        5.609335
 O         9.103066       11.795174        7.766418
 O         8.915025       11.796287        3.311926
 O        10.336216       12.698664        1.077044
 O        10.421534        8.141846        1.059718
 O        14.163131        8.170038        3.366697
 O        14.271851        8.149546        7.805492
 O        14.252782       12.736515        7.804285
 O         9.112230        9.049530        7.786135
 O         1.189921        9.113044        3.439827
 O         4.850129       11.764528        1.589535
 O         6.360306       12.633240        3.379806
 O         5.162608       11.789039        5.625749
 O         2.602022        8.197011        5.614293
 O         2.594240       12.737338        5.577617
 O         4.512210        9.245140        2.057370
 O         5.228170        9.063250        5.735776
 O         1.308776       11.823565        7.826522
 O         1.197626       11.858396        3.371406
 O         2.613654       12.804992        1.304681
 O         2.324547        8.077142        1.174035
 O         6.593216        8.075709        3.550026
 O         6.556613        8.089683        7.880697
 O         6.532387       12.735576        7.812098
 O         1.317083        9.085841        7.845981
 O         1.301566        1.785873        3.343416
 O         5.182833        4.532657        1.087199
 O         6.505910        5.340161        3.365253
 O         5.179029        4.484310        5.604712
 O         2.577842        0.862502        5.582629
 O         2.598192        5.442111        5.574344
 O         5.185678        1.766157        1.061933
 O         5.175465        1.740462        5.581242
 O         1.307342        4.517918        7.820340
 O         1.278528        4.503174        3.353720
 O         2.552438        5.376605        1.083320
 O         2.611964        0.867322        1.101506
 O         6.480314        0.849593        3.317894
 O         6.501986        0.864042        7.824777
 O         6.507374        5.361427        7.842466
 O         1.329411        1.780192        7.843064
 O         9.064468        1.698335        3.316370
 O        12.993061        4.490182        1.119761
 O        14.247949        5.430701        3.374670
 O        12.971183        4.511219        5.607083
 O        10.399706        0.853386        5.552655
 O        10.380733        5.395563        5.589886
 O        12.967213        1.757388        1.103376
 O        12.988587        1.771970        5.594166
 O         9.094826        4.471378        7.821333
 O         9.097214        4.444623        3.359541
 O        10.394352        5.383861        1.113990
 O        10.388577        0.827709        1.087660
 O        14.249784        0.867600        3.353435
 O        14.272854        0.877294        7.839854
 O        14.250348        5.419513        7.842649
 O         9.111177        1.732628        7.808432
 O         1.321217        1.774751       12.298465
 O         5.184987        4.505668       10.076708
 O         6.476344        5.416128       12.295205
 O         5.213794        4.498813       14.554508
 O         2.596165        0.857768       14.560127
 O         2.633274        5.412379       14.559564
 O         5.225235        1.775270       10.060336
 O         5.205081        1.743692       14.566997
 O         1.291935        4.467516       16.791973
 O         1.341746        4.516651       12.309327
 O         2.606054        5.445395       10.058786
 O         2.641288        0.863851       10.067964
 O         6.496617        0.869533       12.305556
 O         6.517703        0.824752       16.809832
 O         6.535709        5.395106       16.769882
 O         1.311990        1.718269       16.808800
 O         9.142155        9.062366       12.241645
 O        12.998619       11.792984       10.052029
 O        14.285192       12.729573       12.286255
 O        13.060094       11.776428       14.533959
 O        10.531847        8.095709       14.386464
 O        10.488982       12.722776       14.437387
 O        13.003467        9.058175       10.050530
 O        13.063034        9.049221       14.493735
 O         9.256738       11.806242       16.687313
 O         9.124514       11.813745       12.242255
 O        10.414533       12.713823        9.999718
 O        10.429258        8.144855       10.006962
 O        14.339887        8.142404       12.258403
 O        14.269606        8.155253       16.777216
 O        14.282162       12.699349       16.836685
 O         9.356931        9.051103       16.646641
 O         1.365490        9.092972       12.297907
 O         5.201941       11.784765       10.016432
 O         6.531737       12.737869       12.219847
 O         5.223507       11.837301       14.418357
 O         2.634789        8.165590       14.531156
 O         2.614591       12.724508       14.549230
 O         5.219196        9.054375       10.036776
 O         5.214935        9.079443       14.356678
 O         1.324502       11.822418       16.835526
 O         1.334547       11.826966       12.304813
 O         2.634568       12.720690       10.062483
 O         2.625299        8.182123       10.058395
 O         6.551901        8.138079       12.216381
 O         6.757274        8.111413       16.407402
 O         6.671966       12.657310       16.642708
 O         1.325550        9.059820       16.772171
 H         8.166742        1.463761       12.297732
 H         9.059771        2.722182       12.278112
 H        13.402778        4.849287       10.887035
 H        12.059964        4.856402       10.111328
 H        15.193155        5.100750       12.321961
 H        14.317764        6.368741       12.313372
 H        12.988632        3.520702       14.537020
 H        13.431502        4.790446       13.773484
 H         9.928581        1.161095       13.737899
 H        10.411139       14.492714       14.473028
 H        11.275182        5.037394       14.551863
 H         9.943717        5.069650       15.334728
 H        12.061763        1.482477       10.065940
 H        12.940947        2.755102       10.073092
 H        13.416553        1.419008       13.764070
 H        12.067691        1.423619       14.519949
 H         9.569570        4.780322       17.600792
 H         9.126339        3.520946       16.820629
 H         9.493295        4.812717       13.081998
 H         8.151748        4.835150       12.311416
 H         9.916348        5.059394        9.286023
 H         9.889390        5.083979       10.831071
 H        10.395667       14.489106       10.066067
 H         9.926135        1.139094       10.850238
 H        15.177942        1.194535       12.280053
 H        13.835164        1.201080       11.513377
 H        13.780430        1.161179       16.028782
 H        13.786184        1.178285       17.577082
 H        13.785336        5.106031       16.014252
 H        14.242860        6.370996       16.776237
 H         9.568181        1.410464       16.011196
 H         9.573812        1.400669       17.558523
 H         9.566368        8.744732        2.521337
 H         9.603292        8.728494        4.070778
 H        11.999915       12.088342        1.103836
 H        12.920131       10.846300        1.100319
 H        14.187452       13.711814        3.311602
 H        13.728246       12.442629        2.541354
 H        13.397632       12.154536        6.351454
 H        13.386510       12.154930        4.805526
 H        11.302312        8.436645        5.581583
 H        10.405933        7.172243        5.564159
 H        11.244208       12.406138        5.516211
 H        10.372313       13.675786        5.509601
 H        13.414811        8.744239        0.290853
 H        12.075914        8.721625        1.062315
 H        12.938870       10.039611        5.585875
 H        13.367542        8.781432        4.796128
 H         8.201076       12.132620        7.771215
 H         9.515736       12.132051        6.964150
 H         8.988063       10.834575        3.313600
 H         9.415892       12.107848        4.074087
 H         9.921787       12.377724        0.266560
 H         9.809673       12.373627        1.811434
 H        10.387655        7.180199        1.053378
 H        10.018237        8.440703        0.236462
 H        15.060225        8.516368        3.393064
 H        13.761257        8.492805        2.551182
 H        13.831941        8.489053        7.018293
 H        15.173134        8.487942        7.794898
 H        14.241731       13.698808        7.841652
 H        13.810997       12.422441        8.600915
 H         9.556059        8.752969        6.983826
 H         9.110419       10.012371        7.763610
 H         1.696899        8.782143        4.190091
 H         1.561062        8.709152        2.650384
 H         3.949582       12.236212        1.494719
 H         5.467262       12.133836        2.307859
 H         5.986682       12.336539        4.225224
 H         7.275422       12.306345        3.336621
 H         5.157435       10.825378        5.678025
 H         4.245007       12.084094        5.620186
 H         2.162716        8.511540        6.413474
 H         3.510240        8.510459        5.662292
 H         2.583707       13.701658        5.569006
 H         2.094945       12.449932        4.807537
 H         4.730947       10.801514        1.701441
 H         3.702599        8.805343        1.728994
 H         5.732921        8.715310        4.994956
 H         5.675287        8.726962        6.522320
 H         1.741263       12.153913        7.033162
 H         0.404472       12.155164        7.806511
 H         1.182539       10.895251        3.384073
 H         0.276543       12.152222        3.367095
 H         2.593883       13.774993        1.246206
 H         2.050213       12.524931        2.043292
 H         1.991355        8.407522        0.331081
 H         2.391712        7.115913        1.105683
 H         6.030500        8.460399        2.889967
 H         7.479712        8.434997        3.415954
 H         7.469756        8.396194        7.854235
 H         6.572659        7.126240        7.867126
 H         6.045088       12.442669        7.037006
 H         6.509838       13.699309        7.807971
 H         1.775121        8.789380        8.641243
 H         1.321326       10.048727        7.864496
 H         1.301149        2.750517        3.330922
 H         1.764415        1.500098        2.550382
 H         4.265892        4.824064        1.079854
 H         5.162693        3.571285        1.070652
 H         6.537929        6.301156        3.391410
 H         6.040325        5.095687        2.558621
 H         5.179336        3.521902        5.585743
 H         5.644778        4.769791        4.811061
 H         2.108116        1.207050        4.815440
 H         2.123235        1.195045        6.364884
 H         2.630840        6.403759        5.589638
 H         3.509515        5.130614        5.583288
 H         5.665887        1.428629        0.296775
 H         5.655369        1.447919        1.838670
 H         4.268393        1.418234        5.554978
 H         5.611891        1.421762        4.785787
 H         1.735569        4.849361        7.024479
 H         0.399131        4.838646        7.805515
 H         0.377353        4.844500        3.383631
 H         1.731485        4.845088        4.131686
 H         2.094167        5.030111        0.308538
 H         2.089549        5.041798        1.858277
 H         3.516336        1.202211        1.063268
 H         2.166022        1.170159        0.300232
 H         7.404389        1.130328        3.319715
 H         6.485183       14.494810        3.330097
 H         6.041350        1.200897        8.601836
 H         6.024786        1.188713        7.054792
 H         6.027803        5.046046        7.069243
 H         6.026221        5.050699        8.617586
 H         1.799446        1.479362        8.628520
 H         1.337922        2.743279        7.861079
 H         9.542619        1.383672        2.540679
 H         9.551323        1.390497        4.088657
 H        13.456971        4.832425        1.890605
 H        13.448670        4.829037        0.341472
 H        13.788111        5.123196        4.163923
 H        14.205856        6.392614        3.387596
 H        13.399279        4.844283        6.403812
 H        12.061378        4.827840        5.625449
 H        11.302973        1.185809        5.581888
 H         9.963672        1.170511        6.351053
 H         9.909551        5.064675        6.362394
 H         9.920062        5.049495        4.817786
 H        12.980698        2.720976        1.121743
 H        13.423662        1.464477        1.898963
 H        12.992681        2.735206        5.617342
 H        13.441318        1.474585        6.391198
 H         9.083933        3.508063        7.817530
 H         8.174914        4.757249        7.831021
 H         9.072736        3.482574        3.342463
 H         8.180898        4.740372        3.350380
 H        11.301662        5.063678        1.141284
 H         9.957395        5.053837        1.905181
 H        10.403034       14.466354        1.081228
 H        11.303643        1.127608        1.095042
 H        13.822021        1.196996        4.152503
 H        15.155448        1.193758        3.367846
 H        13.833827        1.214153        8.628901
 H        15.180245        1.198469        7.867826
 H        13.800296        5.128939        8.643609
 H        14.247378        6.382895        7.854842
 H         9.541552        1.408017        8.607395
 H         8.203712        1.412431        7.831542
 H         1.343537        2.737720       12.284354
 H         1.793373        1.474801       11.514667
 H         4.284056        4.845186       10.090199
 H         5.621282        4.842853       10.867952
 H         6.028199        5.129279       13.097895
 H         6.487456        6.380439       12.301470
 H         5.685927        4.792371       15.341968
 H         5.227064        3.536415       14.569454
 H         2.151040        1.164504       13.763242
 H         2.588901       14.496885       14.528903
 H         3.536601        5.078153       14.589427
 H         2.187065        5.077302       15.342813
 H         5.219779        2.738596       10.087052
 H         5.675807        1.479187       10.859225
 H         5.640597        1.407809       15.356730
 H         4.297064        1.425380       14.590071
 H         1.265342        3.505340       16.787691
 H         0.378803        4.774177       16.782866
 H         1.800336        4.860240       11.535406
 H         1.815320        4.839846       13.083286
 H         2.598709        6.408533       10.035724
 H         2.145777        5.145045        9.268572
 H         2.659894       14.502948       10.065778
 H         3.558507        1.158410       10.068829
 H         6.493036       14.507757       12.295438
 H         6.036892        1.143291       13.106165
 H         7.428264        1.141211       16.799692
 H         6.568690       14.466905       16.789019
 H         7.437567        5.058306       16.817053
 H         6.086360        5.109833       17.570585
 H         1.741850        1.402077       16.005518
 H         0.406324        1.390580       16.787861
 H         9.591410        8.775105       11.439850
 H         9.144357       10.025049       12.232820
 H        13.014594       10.829799       10.073111
 H        13.448320       12.098273       10.847138
 H        14.264147       13.692369       12.308261
 H        13.853895       12.421011       13.090558
 H        13.070953       10.812309       14.541747
 H        13.485609       12.069211       15.345096
 H        10.031527        8.411959       13.626331
 H        10.452028        7.136284       14.407688
 H        10.036221       12.382364       13.658409
 H        11.388541       12.380495       14.424144
 H        12.099571        8.724390       10.031171
 H        13.431970        8.732232        9.251942
 H        12.164800        8.701523       14.440588
 H        13.518860        8.729233       13.707478
 H         9.282983       10.843179       16.665789
 H         9.712910       12.112475       15.895517
 H         9.549174       12.142172       11.443057
 H         8.219481       12.143048       12.230901
 H         9.986397       12.383559        9.203202
 H        11.316172       12.375319        9.998062
 H         9.968376        8.442581        9.215398
 H        10.391296        7.182406       10.008077
 H        13.893111        8.471179       11.471157
 H        15.239165        8.487645       12.240325
 H        13.849521        8.476460       15.971322
 H        15.175879        8.478869       16.755426
 H        14.250914       13.662405       16.836742
 H        13.790756       12.406881       17.611547
 H         8.457385        8.724621       16.560541
 H         9.812439        8.728593       15.861075
 H         1.810665        8.784021       13.095174
 H         1.364879       10.055666       12.328535
 H         5.675269       12.091528        9.236752
 H         5.230234       10.821161       10.003408
 H         6.061808       12.398546       11.451315
 H         6.054524       12.409579       12.991117
 H         5.711195       12.133162       15.192019
 H         4.323957       12.167008       14.507102
 H         2.655679        7.203135       14.541567
 H         3.551047        8.462423       14.497228
 H         2.144702       12.390289       13.777128
 H         2.156706       12.389961       15.324504
 H         5.698885        8.731849       10.809439
 H         5.690253        8.702057        9.273787
 H         5.221439       10.040775       14.411707
 H         5.739667        8.760779       15.098342
 H         1.757884       12.152514       17.619520
 H         0.415283       12.146454       16.865011
 H         0.430402       12.158583       12.273323
 H         1.778904       12.150847       11.513978
 H         3.533376       12.373930       10.031519
 H         2.187238       12.398349        9.273750
 H         3.536687        8.495275       10.070583
 H         2.205589        8.513752       10.860303
 H         7.456074        8.467401       12.245749
 H         6.095745        8.505673       12.984069
 H         6.410018        8.589128       17.159191
 H         6.645497        7.170481       16.596266
 H         7.590741       12.352598       16.624607
 H         6.265054       12.123260       17.320204
 H         1.351679       10.020844       16.771898
 H         1.812223        8.768023       15.992869
384
 generated by VMD
 O         9.083636        1.759238       12.283852
 O        12.966199        4.530602       10.089573
 O        14.279747        5.406185       12.330643
 O        12.968467        4.483320       14.560121
 O        10.394746        0.852626       14.522221
 O        10.372162        5.370985       14.526681
 O        12.973711        1.792344       10.064590
 O        12.976987        1.741662       14.557737
 O         9.114001        4.483564       16.805758
 O         9.055020        4.500951       12.283061
 O        10.371252        5.405762       10.061085
 O        10.392430        0.850026       10.058083
 O        14.273527        0.862942       12.301096
 O        14.248906        0.834952       16.805264
 O        14.245173        5.408214       16.805061
 O         9.102800        1.736419       16.788525
 O         9.114020        9.061865        3.310384
 O        12.922506       11.809927        1.110570
 O        14.187982       12.748034        3.332467
 O        12.925603       11.819724        5.581389
 O        10.387590        8.135201        5.549714
 O        10.331727       12.713621        5.491556
 O        12.976694        9.067931        1.084923
 O        12.941677        9.076818        5.609335
 O         9.103066       11.795174        7.766418
 O         8.915025       11.796287        3.311926
 O        10.336216       12.698664        1.077044
 O        10.421534        8.141846        1.059718
 O        14.163131        8.170038        3.366697
 O        14.271851        8.149546        7.805492
 O        14.252782       12.736515        7.804285
 O         9.112230        9.049530        7.786135
 O         1.189921        9.113044        3.439827
 O         4.850129       11.764528        1.589535
 O         6.360306       12.633240        3.379806
 O         5.162608       11.789039        5.625749
 O         2.602022        8.197011        5.614293
 O         2.594240       12.737338        5.577617
 O         4.512210        9.245140        2.057370
 O         5.228170        9.063250        5.735776
 O         1.308776       11.823565        7.826522
 O         1.197626       11.858396        3.371406
 O         2.613654       12.804992        1.304681
 O         2.324547        8.077142        1.174035
 O         6.593216        8.075709        3.550026
 O         6.556613        8.089683        7.880697
 O         6.532387       12.735576        7.812098
 O         1.317083        9.085841        7.845981
 O         1.301566        1.785873        3.343416
 O         5.182833        4.532657        1.087199
 O         6.505910        5.340161        3.365253
 O         5.179029        4.484310        5.604712
 O         2.577842        0.862502        5.582629
 O         2.598192        5.442111        5.574344
 O         5.185678        1.766157        1.061933
 O         5.175465        1.740462        5.581242
 O         1.307342        4.517918        7.820340
 O         1.278528        4.503174        3.353720
 O         2.552438        5.376605        1.083320
 O         2.611964        0.867322        1.101506
 O         6.480314        0.849593        3.317894
 O         6.501986        0.864042        7.824777
 O         6.507374        5.361427        7.842466
 O         1.329411        1.780192        7.843064
 O         9.064468        1.698335        3.316370
 O        12.993061        4.490182        1.119761
 O        14.247949        5.430701        3.374670
 O        12.971183        4.511219        5.607083
 O        10.399706        0.853386        5.552655
 O        10.380733        5.395563        5.589886
 O        12.967213        1.757388        1.103376
 O        12.988587        1.771970        5.594166
 O         9.094826        4.471378        7.821333
 O         9.097214        4.444623        3.359541
 O        10.394352        5.383861        1.113990
 O        10.388577        0.827709        1.087660
 O        14.249784        0.867600        3.353435
 O        14.272854        0.877294        7.839854
 O        14.250348        5.419513        7.842649
 O         9.111177        1.732628        7.808432
 O         1.321217        1.774751       12.298465
 O         5.184987        4.505668       10.076708
 O         6.476344        5.416128       12.295205
 O         5.213794        4.498813       14.554508
 O         2.596165        0.857768       14.560127
 O         2.633274        5.412379       14.559564
 O         5.225235        1.775270       10.060336
 O         5.205081        1.743692       14.566997
 O         1.291935        4.467516       16.791973
 O         1.341746        4.516651       12.309327
 O         2.606054        5.445395       10.058786
 O         2.641288        0.863851       10.067964
 O         6.496617        0.869533       12.305556
 O         6.517703        0.824752       16.809832
 O         6.535709        5.395106       16.769882
 O         1.311990        1.718269       16.808800
 O         9.142155        9.062366       12.241645
 O        12.998619       11.792984       10.052029
 O        14.285192       12.729573       12.286255
 O        13.060094       11.776428       14.533959
 O        10.531847        8.095709       14.386464
 O        10.488982       12.722776       14.437387
 O        13.003467        9.058175       10.050530
 O        13.063034        9.049221       14.493735
 O         9.256738       11.806242       16.687313
 O         9.124514       11.813745       12.242255
 O        10.414533       12.713823        9.999718
 O        10.429258        8.144855       10.006962
 O        14.339887        8.142404       12.258403
 O        14.269606        8.155253       16.777216
 O        14.282162       12.699349       16.836685
 O         9.356931        9.051103       16.646641
 O         1.365490        9.092972       12.297907
 O         5.201941       11.784765       10.016432
 O         6.531737       12.737869       12.219847
 O         5.223507       11.837301       14.418357
 O         2.634789        8.165590       14.531156
 O         2.614591       12.724508       14.549230
 O         5.219196        9.054375       10.036776
 O         5.214935        9.079443       14.356678
 O         1.324502       11.822418       16.835526
 O         1.334547       11.826966       12.304813
 O         2.634568       12.720690       10.062483
 O         2.625299        8.182123       10.058395
 O         6.551901        8.138079       12.216381
 O         6.757274        8.111413       16.407402
 O         6.671966       12.657310       16.642708
 O         1.325550        9.059820       16.772171
 H         8.166742        1.463761       12.297732
 H         9.059771        2.722182       12.278112
 H        13.402778        4.849287       10.887035
 H        12.059964        4.856402       10.111328
 H        15.193155        5.100750       12.321961
 H        14.317764        6.368741       12.313372
 H        12.988632        3.520702       14.537020
 H        13.431502        4.790446       13.773484
 H         9.928581        1.161095       13.737899
 H        10.411139       14.492714       14.473028
 H        11.275182        5.037394       14.551863
 H         9.943717        5.069650       15.334728
 H        12.061763        1.482477       10.065940
 H        12.940947        2.755102       10.073092
 H        13.416553        1.419008       13.764070
 H        12.067691        1.423619       14.519949
 H         9.569570        4.780322       17.600792
 H         9.126339        3.520946       16.820629
 H         9.493295        4.812717       13.081998
 H         8.151748        4.835150       12.311416
 H         9.916348        5.059394        9.286023
 H         9.889390        5.083979       10.831071
 H        10.395667       14.489106       10.066067
 H         9.926135        1.139094       10.850238
 H        15.177942        1.194535       12.280053
 H        13.835164        1.201080       11.513377
 H        13.780430        1.161179       16.028782
 H        13.786184        1.178285       17.577082
 H        13.785336        5.106031       16.014252
 H        14.242860        6.370996       16.776237
 H         9.568181        1.410464       16.011196
 H         9.573812        1.400669       17.558523
 H         9.566368        8.744732        2.521337
 H         9.603292        8.728494        4.070778
 H        11.999915       12.088342        1.103836
 H        12.920131       10.846300        1.100319
 H        14.187452       13.711814        3.311602
 H        13.728246       12.442629        2.541354
 H        13.397632       12.154536        6.351454
 H        13.386510       12.154930        4.805526
 H        11.302312        8.436645        5.581583
 H        10.405933        7.172243        5.564159
 H        11.244208       12.406138        5.516211
 H        10.372313       13.675786        5.509601
 H        13.414811        8.744239        0.290853
 H        12.075914        8.721625        1.062315
 H        12.938870       10.039611        5.585875
 H        13.367542        8.781432        4.796128
 H         8.201076       12.132620        7.771215
 H         9.515736       12.132051        6.964150
 H         8.988063       10.834575        3.313600
 H         9.415892       12.107848        4.074087
 H         9.921787       12.377724        0.266560
 H         9.809673       12.373627        1.811434
 H        10.387655        7.180199        1.053378
 H        10.018237        8.440703        0.236462
 H        15.060225        8.516368        3.393064
 H        13.761257        8.492805        2.551182
 H        13.831941        8.489053        7.018293
 H        15.173134        8.487942        7.794898
 H        14.241731       13.698808        7.841652
 H        13.810997       12.422441        8.600915
 H         9.556059        8.752969        6.983826
 H         9.110419       10.012371        7.763610
 H         1.696899        8.782143        4.190091
 H         1.561062        8.709152        2.650384
 H         3.949582       12.236212        1.494719
 H         5.467262       12.133836        2.307859
 H         5.986682       12.336539        4.225224
 H         7.275422       12.306345        3.336621
 H         5.157435       10.825378        5.678025
 H         4.245007       12.084094        5.620186
 H         2.162716        8.511540        6.413474
 H         3.510240        8.510459        5.662292
 H         2.583707       13.701658        5.569006
 H         2.094945       12.449932        4.807537
 H         4.730947       10.801514        1.701441
 H         3.702599        8.805343        1.728994
 H         5.732921        8.715310        4.994956
 H         5.675287        8.726962        6.522320
 H         1.741263       12.153913        7.033162
 H         0.404472       12.155164        7.806511
 H         1.182539       10.895251        3.384073
 H         0.276543       12.152222        3.367095
 H         2.593883       13.774993        1.246206
 H         2.050213       12.524931        2.043292
 H         1.991355        8.407522        0.331081
 H         2.391712        7.115913        1.105683
 H         6.030500        8.460399        2.889967
 H         7.479712        8.434997        3.415954
 H         7.469756        8.396194        7.854235
 H         6.572659        7.126240        7.867126
 H         6.045088       12.442669        7.037006
 H         6.509838       13.699309        7.807971
 H         1.775121        8.789380        8.641243
 H         1.321326       10.048727        7.864496
 H         1.301149        2.750517        3.330922
 H         1.764415        1.500098        2.550382
 H         4.265892        4.824064        1.079854
 H         5.162693        3.571285        1.070652
 H         6.537929        6.301156        3.391410
 H         6.040325        5.095687        2.558621
 H         5.179336        3.521902        5.585743
 H         5.644778        4.769791        4.811061
 H         2.108116        1.207050        4.815440
 H         2.123235        1.195045        6.364884
 H         2.630840        6.403759        5.589638
 H         3.509515        5.130614        5.583288
 H         5.665887        1.428629        0.296775
 H         5.655369        1.447919        1.838670
 H         4.268393        1.418234        5.554978
 H         5.611891        1.421762        4.785787
 H         1.735569        4.849361        7.024479
 H         0.399131        4.838646        7.805515
 H         0.377353        4.844500        3.383631
 H         1.731485        4.845088        4.131686
 H         2.094167        5.030111        0.308538
 H         2.089549        5.041798        1.858277
 H         3.516336        1.202211        1.063268
 H         2.166022        1.170159        0.300232
 H         7.404389        1.130328        3.319715
 H         6.485183       14.494810        3.330097
 H         6.041350        1.200897        8.601836
 H         6.024786        1.188713        7.054792
 H         6.027803        5.046046        7.069243
 H         6.026221        5.050699        8.617586
 H         1.799446        1.479362        8.628520
 H         1.337922        2.743279        7.861079
 H         9.542619        1.383672        2.540679
 H         9.551323        1.390497        4.088657
 H        13.456971        4.832425        1.890605
 H        13.448670        4.829037        0.341472
 H        13.788111        5.123196        4.163923
 H        14.205856        6.392614        3.387596
 H        13.399279        4.844283        6.403812
 H        12.061378        4.827840        5.625449
 H        11.302973        1.185809        5.581888
 H         9.963672        1.170511        6.351053
 H         9.909551        5.064675        6.362394
 H         9.920062        5.049495        4.817786
 H        12.980698        2.720976        1.121743
 H        13.423662        1.464477        1.898963
 H        12.992681        2.735206        5.617342
 H        13.441318        1.474585        6.391198
 H         9.083933        3.508063        7.817530
 H         8.174914        4.757249        7.831021
 H         9.072736        3.482574        3.342463
 H         8.180898        4.740372        3.350380
 H        11.301662        5.063678        1.141284
 H         9.957395        5.053837        1.905181
 H        10.403034       14.466354        1.081228
 H        11.303643        1.127608        1.095042
 H        13.822021        1.196996        4.152503
 H        15.155448        1.193758        3.367846
 H        13.833827        1.214153        8.628901
 H        15.180245        1.198469        7.867826
 H        13.800296        5.128939        8.643609
 H        14.247378        6.382895        7.854842
 H         9.541552        1.408017        8.607395
 H         8.203712        1.412431        7.831542
 H         1.343537        2.737720       12.284354
 H         1.793373        1.474801       11.514667
 H         4.284056        4.845186       10.090199
 H         5.621282        4.842853       10.867952
 H         6.028199        5.129279       13.097895
 H         6.487456        6.380439       12.301470
 H         5.685927        4.792371       15.341968
 H         5.227064        3.536415       14.569454
 H         2.151040        1.164504       13.763242
 H         2.588901       14.496885       14.528903
 H         3.536601        5.078153       14.589427
 H         2.187065        5.077302       15.342813
 H         5.219779        2.738596       10.087052
 H         5.675807        1.479187       10.859225
 H         5.640597        1.407809       15.356730
 H         4.297064        1.425380       14.590071
 H         1.265342        3.505340       16.787691
 H         0.378803        4.774177       16.782866
 H         1.800336        4.860240       11.535406
 H         1.815320        4.839846       13.083286
 H         2.598709        6.408533       10.035724
 H         2.145777        5.145045        9.268572
 H         2.659894       14.502948       10.065778
 H         3.558507        1.158410       10.068829
 H         6.493036       14.507757       12.295438
 H         6.036892        1.143291       13.106165
 H         7.428264        1.141211       16.799692
 H         6.568690       14.466905       16.789019
 H         7.437567        5.058306       16.817053
 H         6.086360        5.109833       17.570585
 H         1.741850        1.402077       16.005518
 H         0.406324        1.390580       16.787861
 H         9.591410        8.775105       11.439850
 H         9.144357       10.025049       12.232820
 H        13.014594       10.829799       10.073111
 H        13.448320       12.098273       10.847138
 H        14.264147       13.692369       12.308261
 H        13.853895       12.421011       13.090558
 H        13.070953       10.812309       14.541747
 H        13.485609       12.069211       15.345096
 H        10.031527        8.411959       13.626331
 H        10.452028        7.136284       14.407688
 H        10.036221       12.382364       13.658409
 H        11.388541       12.380495       14.424144
 H        12.099571        8.724390       10.031171
 H        13.431970        8.732232        9.251942
 H        12.164800        8.701523       14.440588
 H        13.518860        8.729233       13.707478
 H         9.282983       10.843179       16.665789
 H         9.712910       12.112475       15.895517
 H         9.549174       12.142172       11.443057
 H         8.219481       12.143048       12.230901
 H         9.986397       12.383559        9.203202
 H        11.316172       12.375319        9.998062
 H         9.968376        8.442581        9.215398
 H        10.391296        7.182406       10.008077
 H        13.893111        8.471179       11.471157
 H        15.239165        8.487645       12.240325
 H        13.849521        8.476460       15.971322
 H        15.175879        8.478869       16.755426
 H        14.250914       13.662405       16.836742
 H        13.790756       12.406881       17.611547
 H         8.457385        8.724621       16.560541
 H         9.812439        8.728593       15.861075
 H         1.810665        8.784021       13.095174
 H         1.364879       10.055666       12.328535
 H         5.675269       12.091528        9.236752
 H         5.230234       10.821161       10.003408
 H         6.061808       12.398546       11.451315
 H         6.054524       12.409579       12.991117
 H         5.711195       12.133162       15.192019
 H         4.323957       12.167008       14.507102
 H         2.655679        7.203135       14.541567
 H         3.551047        8.462423       14.497228
 H         2.144702       12.390289       13.777128
 H         2.156706       12.389961       15.324504
 H         5.698885        8.731849       10.809439
 H         5.690253        8.702057        9.273787
 H         5.221439       10.040775       14.411707
 H         5.739667        8.760779       15.098342
 H         1.757884       12.152514       17.619520
 H         0.415283       12.146454       16.865011
 H         0.430402       12.158583       12.273323
 H         1.778904       12.150847       11.513978
 H         3.533376       12.373930       10.031519
 H         2.187238       12.398349        9.273750
 H         3.536687        8.495275       10.070583
 H         2.205589        8.513752       10.860303
 H         7.456074        8.467401       12.245749
 H         6.095745        8.505673       12.984069
 H         6.410018        8.589128       17.159191
 H         6.645497        7.170481       16.596266
 H         7.590741       12.352598       16.624607
 H         6.265054       12.123260       17.320204
 H         1.351679       10.020844       16.771898
 H         1.812223        8.768023       15.992869
