384
 generated by VMD
 O         9.077682        1.798953       12.249272
 O        12.983719        4.477067       10.063705
 O        14.288287        5.447436       12.273276
 O        12.957819        4.618378       14.498263
 O        10.356187        0.849735       14.477694
 O        10.357186        5.451129       14.568551
 O        12.971679        1.737846       10.011552
 O        12.899348        1.881824       14.411688
 O         9.060006        4.518271       16.806734
 O         9.086483        4.537469       12.324639
 O        10.400483        5.402729       10.091481
 O        10.365959        0.864141       10.028074
 O        14.258113        0.868761       12.261474
 O        14.256120        1.534513       16.748175
 O        14.313342        5.409839       16.791367
 O         9.064264        1.747306       16.671972
 O         9.100562        9.100927        3.342646
 O        12.947649       11.712337        1.136721
 O        14.282914       12.668302        3.367523
 O        12.945471       11.753660        5.581291
 O        10.364148        8.149428        5.579483
 O        10.382074       12.711733        5.602476
 O        12.966087        8.970803        1.114146
 O        12.966198        9.023132        5.589416
 O         9.104856       11.793157        7.825539
 O         9.091429       11.860783        3.356273
 O        10.293515       12.852680        1.186075
 O        10.344502        8.159006        1.103518
 O        14.298300        8.142173        3.361693
 O        14.285707        8.145966        7.813913
 O        14.255738       12.699130        7.783173
 O         9.088672        9.058443        7.833877
 O         1.349896        9.051334        3.330677
 O         5.242671       11.795053        1.103087
 O         6.519895       12.744925        3.322057
 O         5.227322       11.795280        5.562041
 O         2.623487        8.140640        5.583443
 O         2.635227       12.730666        5.619807
 O         5.229414        9.059456        1.118252
 O         5.214345        9.059858        5.594440
 O         1.316283       11.804582        7.831760
 O         1.359324       11.785921        3.378580
 O         2.637499       12.700321        1.119793
 O         2.651583        8.152609        1.092967
 O         6.526573        8.137628        3.366654
 O         6.491635        8.162769        7.838889
 O         6.511152       12.711758        7.792209
 O         1.332429        9.061039        7.824806
 O         1.337969        1.763139        3.325551
 O         5.225697        4.493249        1.138438
 O         6.552407        5.393263        3.367780
 O         5.219854        4.519339        5.604202
 O         2.637292        0.866073        5.559944
 O         2.609038        5.398435        5.612775
 O         5.220699        1.749518        1.097890
 O         5.240582        1.783575        5.527351
 O         1.332901        4.470578        7.853261
 O         1.329477        4.502591        3.357101
 O         2.655797        5.425618        1.143607
 O         2.650369        0.844506        1.085009
 O         6.558424        0.906074        3.302418
 O         6.476174        0.849256        7.787592
 O         6.512142        5.425206        7.846806
 O         1.314522        1.733727        7.811127
 O         9.106488        1.718142        3.211657
 O        12.972408        4.539591        1.144528
 O        14.274632        5.419608        3.374712
 O        12.958118        4.522128        5.608008
 O        10.369525        0.831286        5.568000
 O        10.360353        5.408797        5.590867
 O        12.797395        1.633964        1.275475
 O        12.964684        1.786252        5.571415
 O         9.095112        4.514590        7.854607
 O         9.148504        4.408805        3.340250
 O        10.364291        5.415849        1.109730
 O        10.433126        0.725807        1.317603
 O        14.283048        0.834651        3.367887
 O        14.264193        0.828119        7.783758
 O        14.284910        5.405519        7.840623
 O         9.051633        1.775966        7.796458
 O         1.322316        1.777292       12.283526
 O         5.213819        4.480723       10.063931
 O         6.496364        5.416367       12.301186
 O         5.202520        4.503485       14.539378
 O         2.661653        0.835790       14.493265
 O         2.634316        5.457489       14.541532
 O         5.189473        1.740590       10.028169
 O         5.228850        1.766770       14.500931
 O         1.406126        4.573019       16.820452
 O         1.335109        4.516891       12.328679
 O         2.631567        5.384517       10.087187
 O         2.604478        0.846931       10.058984
 O         6.503717        0.863584       12.260466
 O         6.448596        0.851446       16.759361
 O         6.474351        5.421711       16.804647
 O         1.482863        1.826301       16.742495
 O         9.091410        9.054936       12.304783
 O        12.958403       11.829386       10.028444
 O        14.248939       12.709537       12.276708
 O        12.963971       11.727919       14.500064
 O        10.370672        8.182501       14.549682
 O        10.381592       12.695049       14.578085
 O        12.981278        9.091459       10.030548
 O        12.981892        9.004525       14.509836
 O         9.100032       11.854207       16.927559
 O         9.084470       11.797676       12.318125
 O        10.367654       12.726574       10.068754
 O        10.409326        8.146015       10.069440
 O        14.280814        8.165956       12.250563
 O        14.284457        8.149245       16.774605
 O        14.213537       12.509001       16.755659
 O         9.088454        9.102612       16.805546
 O         1.329141        9.066866       12.303539
 O         5.218271       11.804748       10.034051
 O         6.511765       12.733488       12.258210
 O         5.235622       11.835101       14.508882
 O         2.643319        8.186245       14.538146
 O         2.633958       12.695139       14.520949
 O         5.196493        9.061138       10.076730
 O         5.229148        9.094720       14.553756
 O         1.372524       11.782798       16.801064
 O         1.302203       11.797979       12.297713
 O         2.620905       12.714096       10.069795
 O         2.611728        8.130536       10.074019
 O         6.506065        8.158803       12.312177
 O         6.502756        8.168419       16.798265
 O         6.495174       12.702140       16.778028
 O         1.352493        9.043325       16.788065
 H         9.528015        1.475497       13.036572
 H         9.090417        2.761180       12.299074
 H        12.068857        4.778181       10.071616
 H        12.958735        3.514340       10.045177
 H        14.277543        6.409881       12.218435
 H        13.832369        5.116752       11.492024
 H        13.450646        4.895219       15.276069
 H        13.434852        4.950288       13.728420
 H        10.401736       14.489957       14.509206
 H        11.262781        1.175159       14.470441
 H        11.270249        5.143745       14.574844
 H         9.936709        5.113694       15.365599
 H        12.065602        1.412202        9.998016
 H        13.402324        1.403161        9.217299
 H        12.896852        2.843989       14.359276
 H        13.386023        1.554136       13.646280
 H         9.031638        3.559928       16.756887
 H         8.145333        4.823385       16.807360
 H         9.512306        4.868032       13.123070
 H         8.178749        4.859833       12.336637
 H         9.937254        5.122774       10.888724
 H        10.399589        6.365870       10.096901
 H         9.888843        1.186143        9.256632
 H         9.909100        1.215752       10.800386
 H        13.834275        1.180228       11.454181
 H        15.164176        1.193635       12.247366
 H        13.255090        1.438297       18.406164
 H        13.770972        1.656716       15.915751
 H        15.222264        5.093485       16.827236
 H        13.875184        5.081246       17.580433
 H         9.557176        1.417629       17.413542
 H         9.531875        1.427713       15.885872
 H         9.113316       10.061742        3.318439
 H         9.541590        8.793451        2.542324
 H        12.073617       12.100986        1.115709
 H        13.372906       11.967197        0.312418
 H        14.274412       13.629914        3.344200
 H        13.836420       12.369429        2.570171
 H        12.960104       10.789671        5.565607
 H        13.411905       12.051275        4.792950
 H        11.275521        8.461404        5.569567
 H         9.943735        8.498579        4.786480
 H        11.280976       12.362737        5.605760
 H         9.951475       12.377197        6.398532
 H        12.049352        8.675030        1.107281
 H        12.931281        9.931921        1.134776
 H        13.447009        8.703770        4.818221
 H        13.443109        8.701674        6.362871
 H         9.111476       10.829960        7.852146
 H         9.544872       12.099291        8.626166
 H         8.180005       12.177105        3.381574
 H         9.522527       12.159744        4.166066
 H         9.852725       12.502534        0.393594
 H         9.850344       12.467984        1.961483
 H        10.322607        7.196529        1.086096
 H         9.905255        8.461955        0.301010
 H        13.850794        8.443592        2.563657
 H        15.200808        8.477416        3.323399
 H        14.309628        7.183190        7.834426
 H        15.200891        8.447357        7.816066
 H        15.161610       12.371360        7.781065
 H        13.824080       12.341973        6.999299
 H         8.181787        8.734264        7.822051
 H         9.513285        8.731368        7.033863
 H         1.809163        8.761996        2.535052
 H         1.371087       10.014345        3.331302
 H         5.677377       12.085248        0.294264
 H         5.253561       10.831489        1.095818
 H         6.070859       12.435504        2.526304
 H         6.500503       13.706141        3.299286
 H         5.229704       10.831700        5.546289
 H         5.674879       12.093901        4.764902
 H         2.602818        7.177864        5.577780
 H         2.172528        8.433347        4.784191
 H         2.661456       13.693421        5.596878
 H         3.547957       12.426248        5.600922
 H         5.662535        8.723014        1.909267
 H         4.323741        8.729912        1.131817
 H         5.639303        8.735894        6.396442
 H         4.310758        8.726443        5.605075
 H         1.795239       12.146492        7.069025
 H         1.778903       12.130880        8.611067
 H         1.783479       12.125022        4.173831
 H         0.450666       12.102574        3.390922
 H         3.542393       12.372238        1.135473
 H         2.209001       12.376520        1.919059
 H         2.641610        7.189064        1.090945
 H         2.192014        8.438493        0.296599
 H         7.420267        8.495526        3.378510
 H         6.086075        8.462052        4.159531
 H         6.037559        8.460539        8.634889
 H         6.487542        7.199686        7.864042
 H         7.416049       12.383588        7.782855
 H         6.082970       12.376346        6.996937
 H         1.791540        8.764210        7.031906
 H         1.341964       10.024034        7.807585
 H         1.346238        2.726540        3.308637
 H         1.788687        1.465108        2.528744
 H         5.235368        3.530530        1.140881
 H         5.698699        4.781573        1.925632
 H         7.462503        5.084669        3.362059
 H         6.580400        6.356472        3.361084
 H         5.696260        4.846700        4.834479
 H         5.686931        4.850504        6.379015
 H         2.199250        1.186430        4.763649
 H         3.537728        1.204546        5.533384
 H         2.181970        5.060170        6.407243
 H         3.516643        5.078380        5.626184
 H         4.314957        1.417575        1.087594
 H         5.637382        1.431850        0.289519
 H         5.245656        2.746106        5.576209
 H         5.677185        1.466728        6.325767
 H         1.339450        3.507484        7.861681
 H         1.790985        4.763641        8.648347
 H         0.423770        4.829913        3.373509
 H         1.754539        4.823123        4.159657
 H         2.204967        5.097121        1.928916
 H         3.556427        5.084694        1.171630
 H         2.220210        1.142889        0.278134
 H         2.623923       14.483612        1.078185
 H         6.088902        1.229446        4.081530
 H         6.063276        1.211348        2.531526
 H         6.475358       14.488317        7.809219
 H         6.015499        1.143799        8.581377
 H         7.418458        5.100218        7.875100
 H         6.070582        5.082066        8.631486
 H         1.759316        1.419770        7.017032
 H         0.411230        1.400944        7.776854
 H         9.123281        2.688372        3.249992
 H         8.173274        1.447346        3.239884
 H        12.924975        3.588655        1.221595
 H        13.432879        4.849387        1.935292
 H        14.277779        6.383909        3.391876
 H        13.808302        5.129021        4.165606
 H        13.399782        4.842808        6.401948
 H        12.055444        4.856721        5.632367
 H         9.922434        1.101835        4.766293
 H        10.375551       14.468121        5.571324
 H        10.339033        6.372104        5.593935
 H         9.906875        5.118432        6.389741
 H        11.385377        1.051592        1.314089
 H        13.368162        1.333108        2.004489
 H        12.939488        2.749997        5.588897
 H        12.052588        1.482540        5.571947
 H         9.098025        3.551826        7.855878
 H         9.561449        4.799610        8.648207
 H         9.595923        4.757693        4.120079
 H         9.597117        4.777619        2.569902
 H         9.933436        5.081630        0.315617
 H        11.279976        5.120552        1.079275
 H         9.900617        1.120768        2.083004
 H        10.375615       14.303410        1.272005
 H        15.187287        1.170311        3.359489
 H        13.859799        1.180264        4.162157
 H        13.806031        1.142168        6.997520
 H        14.249255       14.467083        7.753347
 H        15.185803        5.065273        7.858623
 H        13.847467        5.072170        8.631566
 H         8.147405        1.443303        7.775531
 H         9.489852        1.440687        7.009151
 H         1.789441        1.457089       13.062177
 H         1.338869        2.739474       12.327720
 H         5.183844        3.518113       10.048789
 H         4.299499        4.785140       10.071394
 H         6.035816        5.074254       11.527404
 H         6.025772        5.086521       13.073888
 H         4.301722        4.845242       14.555699
 H         5.632908        4.829012       15.336600
 H         2.676535       14.474892       14.505001
 H         3.578226        1.133166       14.484324
 H         2.636752        6.421352       14.547470
 H         2.198558        5.179209       15.354347
 H         4.282125        1.418288       10.061057
 H         5.630908        1.417634       10.821406
 H         5.691494        1.475138       13.707359
 H         5.225187        2.730122       14.489560
 H         1.481402        3.614504       16.805082
 H         1.850091        4.865785       17.624384
 H         1.766016        4.857268       13.120584
 H         0.432313        4.852328       12.334631
 H         2.613297        6.347563       10.093367
 H         2.173158        5.097250       10.884768
 H         2.135170        1.191632       10.826794
 H         2.134441        1.160215        9.278934
 H         6.536444       14.502463       12.259507
 H         7.415437        1.174130       12.248487
 H         7.355114        1.165894       16.716560
 H         6.015244        1.180425       15.962698
 H         6.467062        6.384927       16.820583
 H         6.027659        5.125656       17.604111
 H         1.879412        1.465829       15.940540
 H         0.546130        1.660396       16.692722
 H         9.559280        8.732648       13.083776
 H         9.572170        8.729023       11.537090
 H        12.053307       12.158288       10.019495
 H        13.388451       12.158581        9.231826
 H        13.792209       12.423782       11.477884
 H        14.237328       13.672060       12.269646
 H        12.977535       10.763931       14.463524
 H        13.416197       12.048903       13.711972
 H        11.293671        8.458344       14.541620
 H        10.376888        7.219083       14.566452
 H         9.973356       12.406965       15.398574
 H        11.280487       12.350158       14.579900
 H        13.441294        8.786705        9.240987
 H        12.981936       10.054457       10.004086
 H        13.454955        8.679639       13.736117
 H        13.455795        8.691392       15.287601
 H         8.180280       12.136267       16.861639
 H         9.090707       10.890638       16.897408
 H         9.098257       10.834335       12.328193
 H         9.529982       12.086666       13.120909
 H         9.922405       12.425836       10.867821
 H        10.344909       13.689548       10.080590
 H        11.308834        8.488984       10.037775
 H         9.961916        8.469340        9.280912
 H        13.845921        8.516278       11.465366
 H        15.185774        8.496490       12.244775
 H        13.818118        8.431860       17.567890
 H        14.289858        7.186328       16.795984
 H        14.042111       13.437390       16.831442
 H        13.771181       12.228522       15.938028
 H         8.184958        8.769880       16.777161
 H         9.525434        8.787101       16.007235
 H         1.790586        8.772749       13.096505
 H         1.334234       10.030049       12.322587
 H         5.670436       12.091709        9.233844
 H         5.216926       10.841716       10.026123
 H         7.410945       12.387633       12.258322
 H         6.082092       12.396314       11.464430
 H         4.323946       12.144607       14.487048
 H         5.663520       12.166398       13.711807
 H         3.547412        8.517771       14.562656
 H         2.206672        8.502244       15.336907
 H         2.144007       12.366543       13.759405
 H         2.184006       12.368429       15.306132
 H         4.292586        8.729346       10.098996
 H         5.634437        8.738003       10.871461
 H         5.682088        8.777277       13.765004
 H         5.246829       10.056823       14.512563
 H         1.790908       12.114825       17.603170
 H         0.461186       12.082077       16.816486
 H         0.397839       12.128148       12.267478
 H         1.747323       12.128910       11.510369
 H         3.536521       12.416936       10.061555
 H         2.639426       13.677215       10.072495
 H         2.149827        8.463286        9.297525
 H         2.142456        8.470634       10.843636
 H         6.522853        7.196053       12.307147
 H         7.423936        8.451899       12.304843
 H         6.039671        8.494870       17.576797
 H         6.033955        8.507940       16.028194
 H         6.465544       13.664171       16.759567
 H         6.057788       12.404379       15.972347
 H         0.433710        8.754436       16.787882
 H         1.340337       10.006173       16.798815
