384
 generated by VMD
 O         9.089992        1.770387       12.329241
 O        12.998149        4.506835       10.052924
 O        14.271894        5.389042       12.312918
 O        12.962493        4.481612       14.546932
 O        10.383262        0.861575       14.559095
 O        10.373036        5.374093       14.575079
 O        12.990997        1.770759       10.098825
 O        12.980515        1.745596       14.570348
 O         9.047802        4.510268       16.817591
 O         9.096192        4.505359       12.310922
 O        10.409185        5.426178       10.083208
 O        10.412949        0.850082       10.102023
 O        14.279140        0.834952       12.337187
 O        14.304565        0.831999       16.784992
 O        14.289348        5.390319       16.764696
 O         9.068838        1.777225       16.791225
 O         9.088471        9.055172        3.351189
 O        12.831318       11.759421        1.001263
 O        14.066662       12.739048        3.227464
 O        12.943015       11.809355        5.545228
 O        10.381105        8.169542        5.602079
 O        10.351550       12.692894        5.582922
 O        12.954380        9.026756        1.082136
 O        12.972671        9.054908        5.594638
 O         9.122304       11.828521        7.864383
 O         9.051214       11.797870        3.324305
 O        10.288024       12.712176        1.053179
 O        10.356217        8.149929        1.094616
 O        14.217317        8.101147        3.342467
 O        14.288383        8.166389        7.825057
 O        14.228478       12.721181        7.802588
 O         9.112325        9.090760        7.853937
 O         1.269560        8.950997        3.356367
 O         5.025025       11.898415        1.231818
 O         6.446941       12.722046        3.345014
 O         5.360771       11.782097        5.685601
 O         2.658296        8.117458        5.617120
 O         2.777120       12.795339        5.797843
 O         5.195508        9.203733        1.117001
 O         5.241918        9.046898        5.581713
 O         1.286054       11.792912        7.904051
 O         0.970352       11.756908        2.742309
 O         2.756583       12.870790        1.133589
 O         2.633225        8.144271        1.089682
 O         6.494334        8.161649        3.286726
 O         6.527713        8.175457        7.833314
 O         6.565554       12.747646        7.921006
 O         1.356696        9.053737        7.864139
 O         1.310233        1.748391        3.347532
 O         5.184378        4.485040        1.098231
 O         6.491329        5.405490        3.320414
 O         5.223617        4.508047        5.586130
 O         2.651637        0.898796        5.639140
 O         2.622511        5.375288        5.609193
 O         5.174939        1.764164        1.055133
 O         5.237694        1.769844        5.602489
 O         1.293737        4.494261        7.842858
 O         1.296743        4.518446        3.354152
 O         2.614093        5.404339        1.106433
 O         2.720126        0.724894        1.003513
 O         6.502921        0.849385        3.333186
 O         6.537513        0.877754        7.836447
 O         6.517377        5.434456        7.820450
 O         1.301880        1.759752        7.867154
 O         9.071883        1.761007        3.330248
 O        12.949948        4.491857        1.048100
 O        14.227358        5.372566        3.321150
 O        12.919974        4.500224        5.545539
 O        10.368387        0.831039        5.583297
 O        10.338688        5.427759        5.581459
 O        12.958530        1.748630        1.061306
 O        12.944715        1.760865        5.589302
 O         9.093726        4.505294        7.851063
 O         9.083195        4.499390        3.328647
 O        10.373134        5.420501        1.095541
 O        10.362806        0.857766        1.082342
 O        14.241547        0.889826        3.337096
 O        14.244455        0.866992        7.837553
 O        14.245338        5.419665        7.779163
 O         9.131765        1.763048        7.852169
 O         1.317925        1.764789       12.328391
 O         5.223751        4.543524       10.064487
 O         6.528165        5.432106       12.299625
 O         5.251060        4.505818       14.537236
 O         2.646478        0.857007       14.559611
 O         2.645156        5.382097       14.544376
 O         5.211363        1.796974       10.056285
 O         5.232510        1.769075       14.527830
 O         1.355603        4.464896       16.796993
 O         1.332330        4.499936       12.302614
 O         2.622662        5.406649       10.060232
 O         2.626923        0.868099       10.092416
 O         6.499249        0.864126       12.283001
 O         6.492619        0.882067       16.778370
 O         6.472591        5.449074       16.817978
 O         1.404339        1.721218       16.824665
 O         9.093314        9.044765       12.335131
 O        12.984125       11.788055       10.066110
 O        14.263656       12.700121       12.304526
 O        12.922697       11.790427       14.512555
 O        10.383940        8.112235       14.566671
 O        10.356898       12.727008       14.540810
 O        12.997085        9.053191       10.075336
 O        12.964088        9.037649       14.541724
 O         9.019127       11.803265       16.736305
 O         9.081090       11.780168       12.315938
 O        10.407061       12.717360       10.113027
 O        10.402046        8.164826       10.084421
 O        14.279153        8.128050       12.308732
 O        14.264832        8.141320       16.779955
 O        14.206381       12.696877       16.747475
 O         9.068041        9.059850       16.785681
 O         1.335382        9.040632       12.300493
 O         5.201188       11.812325       10.096789
 O         6.512631       12.725372       12.315769
 O         5.190557       11.821205       14.544659
 O         2.617417        8.124291       14.541454
 O         2.604719       12.724805       14.467244
 O         5.238701        9.074251       10.076570
 O         5.194096        9.074033       14.553367
 O         1.271842       11.712436       16.656200
 O         1.313832       11.782016       12.282624
 O         2.617466       12.734717       10.096534
 O         2.661322        8.135941       10.085678
 O         6.500721        8.162402       12.327081
 O         6.466943        8.201081       16.830328
 O         6.422890       12.771679       16.814898
 O         1.336198        9.021241       16.767084
 H         8.174173        1.473772       12.307454
 H         9.070233        2.733739       12.316701
 H        13.440131        4.802714        9.250343
 H        13.007481        3.543792       10.040766
 H        13.789786        5.056405       13.077318
 H        13.811337        5.070661       11.528916
 H        12.056180        4.805712       14.583951
 H        13.411817        4.814692       15.331053
 H         9.913811        1.193210       13.785460
 H         9.912469        1.192883       15.330969
 H         9.889531        5.053000       15.343409
 H         9.908837        5.053703       13.794104
 H        12.086718        1.439031       10.121144
 H        13.426726        1.436774       10.889956
 H        12.956072        2.708962       14.561041
 H        12.063600        1.449967       14.573054
 H         9.494832        4.845935       17.602236
 H         8.147853        4.852396       16.842537
 H         8.196474        4.849271       12.280033
 H         9.546482        4.838408       11.527175
 H        10.429893        6.389264       10.081377
 H        11.324428        5.127446       10.072624
 H        10.400272       14.489146       10.131011
 H         9.944108        1.156553       10.885301
 H        14.262691       14.473859       12.344745
 H        13.815673        1.130109       13.128282
 H        13.864748        1.172828       15.997575
 H        15.208197        1.158729       16.767990
 H        14.311453        6.352913       16.770882
 H        15.203842        5.090364       16.774200
 H         9.072348        2.740388       16.823347
 H         9.526238        1.472353       17.582491
 H         9.547131        8.765119        4.147215
 H         9.088481       10.017854        3.365252
 H        13.315694       12.063854        0.227421
 H        12.889492       10.797068        1.010550
 H        13.547469       12.414146        2.482852
 H        13.666386       12.393020        4.034861
 H        12.032762       12.122314        5.589501
 H        13.390609       12.150220        6.327087
 H         9.952972        8.508069        6.395829
 H        11.291233        8.484146        5.623590
 H         9.891442       12.370522        6.366031
 H         9.878364       12.359131        4.814372
 H        13.379891        8.701252        1.882555
 H        12.047386        8.702317        1.099757
 H        13.445476        8.774758        6.386006
 H        12.981076       10.017584        5.592798
 H         9.577261       12.149587        8.650411
 H         8.221878       12.169667        7.913428
 H         9.475534       12.126006        2.523890
 H         8.147981       12.127095        3.309180
 H         9.843911       12.393523        0.260651
 H        11.182562       12.355536        1.018149
 H         9.887212        8.485098        0.323389
 H         9.894107        8.480265        1.872627
 H        13.774056        8.407727        4.141021
 H        14.197259        7.137482        3.358917
 H        13.853492        8.483634        8.623683
 H        15.197116        8.483201        7.856527
 H        15.141072       12.416077        7.825242
 H        14.258348       13.683767        7.818982
 H         9.089655       10.053910        7.859548
 H         8.197008        8.790540        7.845026
 H         0.354464        8.638641        3.359829
 H         1.216677        9.895715        3.276088
 H         5.533783       12.178788        2.013973
 H         5.068528       10.927150        1.198884
 H         6.457327       13.686567        3.374619
 H         6.052365       12.419008        4.171104
 H         5.294906       10.820322        5.647473
 H         4.463171       12.116527        5.748903
 H         2.642400        7.153811        5.604636
 H         2.177796        8.405971        4.837168
 H         2.730724       13.761647        5.735148
 H         2.483103       12.475239        4.954355
 H         5.662073        8.835400        1.877673
 H         5.652313        8.871680        0.335463
 H         5.659025        8.729641        4.774137
 H         4.335069        8.722026        5.568959
 H         1.319375       10.829694        7.876457
 H         1.788502       12.105463        7.148041
 H         2.143360       12.532210        1.806895
 H         0.076433       12.121609        2.901523
 H         2.756260       13.911719        1.087499
 H         3.700222       12.451712        1.224168
 H         2.175085        8.435758        1.883921
 H         3.520519        8.513878        1.132070
 H         7.413102        8.449860        3.315226
 H         6.507537        7.198810        3.287479
 H         6.522898        7.212268        7.816721
 H         6.076436        8.462070        7.031799
 H         6.071921       12.415853        8.678993
 H         6.141225       12.381871        7.136735
 H         1.833076        8.722244        8.633417
 H         1.822509        8.722134        7.089758
 H         1.739687        1.399885        2.569373
 H         0.403076        1.419171        3.333215
 H         4.280757        4.818901        1.128277
 H         5.627425        4.810467        1.890318
 H         6.064078        5.086106        4.122356
 H         7.396204        5.075972        3.338434
 H         5.208714        3.545176        5.592620
 H         4.304547        4.796280        5.594654
 H         2.205726        1.195900        4.841117
 H         3.555808        1.233164        5.599357
 H         2.143838        5.052960        6.380661
 H         2.141560        5.063706        4.835838
 H         5.181737        2.730218        1.061896
 H         5.655178        1.489124        0.264860
 H         5.711327        1.438042        6.373899
 H         5.695738        1.433787        4.825943
 H         1.270096        3.531412        7.856005
 H         0.379922        4.797154        7.818636
 H         1.282937        3.557365        3.343524
 H         0.376549        4.804323        3.343950
 H         2.145014        5.121042        1.898423
 H         2.620781        6.367472        1.116915
 H         3.607986        1.127175        1.020170
 H         2.255248        1.082142        0.226640
 H         7.408193        1.182473        3.306430
 H         6.062553        1.181494        2.546821
 H         6.558768       14.516900        7.866339
 H         7.454522        1.172486        7.847203
 H         7.418629        5.094371        7.812913
 H         6.085686        5.100977        7.026535
 H         1.786790        1.450984        7.095215
 H         1.777867        1.437392        8.640051
 H         9.537552        1.464228        2.541186
 H         9.088844        2.724386        3.315296
 H        13.426107        4.789163        0.265999
 H        12.956077        3.529241        1.025248
 H        13.743961        5.042078        4.087185
 H        13.766708        5.052625        2.538618
 H        12.005046        4.800743        5.562092
 H        12.899744        3.537508        5.570846
 H         9.909774        1.139976        4.795388
 H        10.343758       14.470446        5.558693
 H        10.338783        6.390678        5.608729
 H         9.896379        5.127091        6.382215
 H        13.448810        1.414035        0.303754
 H        13.425277        1.452405        1.849528
 H        12.046276        1.413428        5.604689
 H        13.382141        1.442226        6.386081
 H         9.119898        3.542806        7.871151
 H         9.558944        4.810967        8.636897
 H         9.555118        4.836388        2.559293
 H         9.539293        4.838962        4.106065
 H        11.287717        5.119362        1.071966
 H        10.393509        6.383767        1.094611
 H        10.362540       14.496762        1.073080
 H        11.284391        1.136732        1.072319
 H        13.784476        1.190420        4.131333
 H        14.169505       14.533300        3.329688
 H        13.821404        1.191435        8.639748
 H        15.152207        1.187949        7.855783
 H        14.249160        6.382523        7.769886
 H        13.778668        5.131577        6.988319
 H         9.600856        1.426059        8.622725
 H         9.588069        1.427842        7.073508
 H         1.757382        1.441894       13.121210
 H         0.417264        1.422237       12.349003
 H         4.312805        4.854935       10.037293
 H         5.656437        4.871487        9.268426
 H         6.059836        5.137177       11.510723
 H         6.504780        6.395586       12.290193
 H         5.698348        4.846773       15.318611
 H         5.722249        4.848125       13.769629
 H         2.658833       14.496512       14.526464
 H         3.563295        1.152737       14.540358
 H         3.553557        5.064949       14.510512
 H         2.203155        5.054605       13.753478
 H         5.228814        2.759812       10.039915
 H         5.672287        1.498732        9.264654
 H         5.682575        1.470325       13.729399
 H         5.248706        2.732489       14.512416
 H         1.826896        4.795546       16.024860
 H         1.810189        4.811538       17.572157
 H         0.417705        4.802466       12.313164
 H         1.301111        3.537182       12.308066
 H         2.157780        5.077550       10.837022
 H         2.139705        5.081855        9.292422
 H         2.191519        1.197142       10.885885
 H         3.527322        1.209690       10.100334
 H         6.493357       14.503231       12.269928
 H         6.043929        1.161559       11.487692
 H         6.072291        1.203692       15.972055
 H         7.402653        1.202194       16.766811
 H         6.008674        5.135480       17.601416
 H         6.452175        6.411296       16.848763
 H         1.399053        2.686144       16.813713
 H         1.844827        1.439070       16.013330
 H         8.185730        8.722708       12.355681
 H         9.530098        8.697791       13.120279
 H        13.000311       10.824970       10.044016
 H        13.417646       12.095175        9.262821
 H        15.166538       12.366043       12.280738
 H        13.831281       12.377095       11.506032
 H        13.384295       12.129588       15.286619
 H        13.405482       12.111611       13.742984
 H        11.299662        8.410260       14.558060
 H        10.403109        7.149201       14.570255
 H        11.269795       12.418227       14.533814
 H        10.388542       13.690000       14.541971
 H        12.089149        8.732185       10.094837
 H        13.427902        8.716722       10.868562
 H        13.427125        8.754772       15.337504
 H        12.958391       10.000327       14.550047
 H         8.119290       12.139020       16.724287
 H         9.463754       12.148631       15.954030
 H         9.531501       12.092683       13.108066
 H         9.095302       10.817061       12.346844
 H        11.308173       12.377464       10.126282
 H         9.963333       12.367009       10.893073
 H         9.934808        8.501664        9.311985
 H         9.927433        8.485726       10.858248
 H        13.820690        8.431494       13.099351
 H        14.263754        7.165082       12.332149
 H        13.830697        8.456754       17.579721
 H        15.170338        8.465936       16.803907
 H        14.260761       13.659177       16.763706
 H        15.109007       12.371192       16.725605
 H         9.070215       10.021560       16.742647
 H         9.534622        8.744382       16.004385
 H         1.778796        8.706466       11.512899
 H         0.430193        8.712432       12.276010
 H         4.298827       12.148231       10.110933
 H         5.636642       12.138811       10.891515
 H         6.079102       12.396506       13.109745
 H         7.411998       12.379378       12.325787
 H         4.285854       12.151099       14.527511
 H         5.594270       12.162564       15.347893
 H         2.160218        8.423138       13.747387
 H         2.621160        7.161227       14.514722
 H         2.121996       12.362986       15.214570
 H         2.152064       12.397023       13.679453
 H         5.233624       10.037194       10.059521
 H         5.695467        8.782588        9.279948
 H         5.163687       10.036132       14.553023
 H         4.282176        8.764765       14.552330
 H         1.764995       12.020020       17.406727
 H         1.298882       10.744250       16.700399
 H         1.339018       10.819208       12.263664
 H         1.774089       12.094661       11.494849
 H         2.604549       13.697856       10.075934
 H         2.143920       12.428582        9.315381
 H         2.680875        7.172581       10.078900
 H         3.575727        8.438629       10.086978
 H         6.020623        8.492837       13.093921
 H         6.047455        8.500670       11.546952
 H         6.038167        8.513717       16.026926
 H         7.380503        8.504784       16.791180
 H         6.442569       13.737240       16.822058
 H         5.976812       12.499740       17.614887
 H         1.805590        8.704458       17.546160
 H         1.801845        8.676628       15.995061
