384
 generated by VMD
 O         9.104591        1.779317       12.297269
 O        12.939685        4.495779       10.027295
 O        14.226531        5.408559       12.279923
 O        12.965697        4.470190       14.547652
 O        10.379220        0.861767       14.528305
 O        10.391162        5.405713       14.566063
 O        12.936238        1.751539       10.069010
 O        12.991622        1.732158       14.545844
 O         9.109515        4.478728       16.797777
 O         9.085896        4.535721       12.318993
 O        10.338963        5.412476       10.032759
 O        10.348156        0.871434       10.033362
 O        14.247097        0.794668       12.283289
 O        14.257279        0.800392       16.795975
 O        14.256092        5.409953       16.784391
 O         9.073593        1.744782       16.767887
 O         9.099319        9.087039        3.338769
 O        12.984729       11.803469        1.144232
 O        14.290475       12.747167        3.365021
 O        12.977098       11.820950        5.584663
 O        10.424916        8.196666        5.566333
 O        10.402348       12.764666        5.532359
 O        12.969108        9.062237        1.088021
 O        13.010196        9.079368        5.601091
 O         9.126669       11.894863        7.780806
 O         9.107947       11.834261        3.314756
 O        10.407183       12.738758        1.084737
 O        10.377169        8.149510        1.099594
 O        14.239285        8.140537        3.337604
 O        14.295492        8.180768        7.849462
 O        14.261203       12.742605        7.825253
 O         9.202648        9.161172        7.811419
 O         1.292949        9.060481        3.320863
 O         5.192208       11.775070        1.094975
 O         6.519147       12.732853        3.289917
 O         5.223022       11.859053        5.525083
 O         2.598459        8.152647        5.576394
 O         2.641287       12.756136        5.537992
 O         5.168878        9.041702        1.075516
 O         5.182456        9.134801        5.503807
 O         1.321135       11.902502        7.771007
 O         1.334360       11.796999        3.341660
 O         2.609176       12.696729        1.086572
 O         2.583112        8.126355        1.096226
 O         6.496682        8.187673        3.300542
 O         6.614309        8.375751        7.687083
 O         6.520658       12.769367        7.767612
 O         1.282474        9.181082        7.768744
 O         1.308506        1.783288        3.333523
 O         5.186565        4.483545        1.059073
 O         6.496504        5.451717        3.246098
 O         5.175066        4.514497        5.434927
 O         2.589236        0.874507        5.578567
 O         2.582007        5.397855        5.699636
 O         5.211725        1.740157        1.089756
 O         5.201688        1.760862        5.552166
 O         1.415914        4.440380        7.967471
 O         1.329619        4.523716        3.385165
 O         2.611706        5.388807        1.109546
 O         2.610240        0.844108        1.111972
 O         6.513017        0.866265        3.324852
 O         6.477214        0.904390        7.828935
 O         6.495194        5.614213        7.544347
 O         1.317786        1.774126        7.801991
 O         9.087337        1.807518        3.274240
 O        12.982298        4.491616        1.086854
 O        14.265791        5.397869        3.342128
 O        12.971063        4.551358        5.596734
 O        10.376206        0.902647        5.523207
 O        10.372507        5.460002        5.554553
 O        12.976950        1.750316        1.091289
 O        12.967198        1.809057        5.581313
 O         9.041203        4.541869        7.771824
 O         9.072521        4.540668        3.318602
 O        10.394437        5.404143        1.089003
 O        10.387423        0.878666        1.061976
 O        14.262390        0.882010        3.344850
 O        14.264160        0.871762        7.827773
 O        14.290429        5.468307        7.835420
 O         9.074162        1.791897        7.782212
 O         1.264354        1.701778       12.310985
 O         4.828360        4.104829       10.958646
 O         6.528893        5.462876       12.516908
 O         5.178207        4.455703       14.658407
 O         2.618966        0.822868       14.565863
 O         2.563965        5.277736       14.500310
 O         5.192262        1.506778       10.205194
 O         5.215381        1.715558       14.572833
 O         1.303437        4.470900       16.801632
 O         1.315048        4.365764       12.274746
 O         2.407355        5.083196       10.137640
 O         2.548304        0.790213       10.075216
 O         6.565740        0.728145       12.411047
 O         6.496233        0.802119       16.806429
 O         6.525375        5.395969       16.829721
 O         1.299007        1.729376       16.804920
 O         9.162910        9.064234       12.303664
 O        12.969846       11.813643       10.061000
 O        14.269385       12.674366       12.317985
 O        12.960946       11.808468       14.569242
 O        10.399600        8.144091       14.566979
 O        10.375060       12.720861       14.555595
 O        12.993648        9.072206       10.095033
 O        12.969412        9.070717       14.535929
 O         9.114983       11.782747       16.805326
 O         9.126248       11.784162       12.306554
 O        10.379501       12.730329       10.056833
 O        10.418090        8.160006       10.046962
 O        14.263014        8.120267       12.320662
 O        14.244925        8.148235       16.774679
 O        14.260984       12.668317       16.827995
 O         9.088736        9.041824       16.795227
 O         1.336585        9.009167       12.318550
 O         5.262945       11.972563       10.057986
 O         6.539566       12.641328       12.389127
 O         5.209069       11.744798       14.596244
 O         2.620087        8.057350       14.545723
 O         2.628474       12.669159       14.565582
 O         5.405023        9.246597       10.008178
 O         5.193907        8.999854       14.554297
 O         1.316732       11.757728       16.796930
 O         1.310268       11.749168       12.335733
 O         2.595109       12.664830       10.080291
 O         2.712670        8.474600        9.998927
 O         6.551353        8.203346       12.305188
 O         6.502517        8.133380       16.807337
 O         6.512766       12.664553       16.822229
 O         1.316250        9.008315       16.774155
 H         9.543650        1.489802       11.490091
 H         9.096254        2.741820       12.281624
 H        13.414228        4.845896        9.266902
 H        13.389320        4.833843       10.807726
 H        15.131784        5.099543       12.286259
 H        14.257744        6.374134       12.296641
 H        13.403976        4.774514       13.747893
 H        12.988690        3.507088       14.528894
 H        11.288519        1.177102       14.520507
 H         9.959319        1.204480       13.731467
 H         9.949414        5.067334       15.352942
 H        11.289985        5.061593       14.585918
 H        12.017155        1.461863       10.051319
 H        12.921589        2.713959       10.058787
 H        13.449261        1.391147       15.321894
 H        13.448801        1.383994       13.774018
 H         9.110025        3.515705       16.815010
 H         9.564023        4.777522       17.593058
 H         9.577484        4.853314       13.084093
 H         9.532880        4.867983       11.533605
 H        11.237527        5.071548        9.998810
 H         9.888289        5.092586        9.243610
 H         9.898720        1.164969        9.233578
 H        10.342359       14.510126       10.023156
 H        13.774768        1.102117       11.501958
 H        14.235220       14.432657       12.265364
 H        14.246202       14.439642       16.833961
 H        13.807030        1.115011       17.587244
 H        13.800541        5.105792       15.992969
 H        14.239163        6.373181       16.762962
 H         9.509320        1.424037       15.971036
 H         8.173664        1.402051       16.756674
 H         9.563717        8.794259        4.130499
 H         9.114472       10.049716        3.349712
 H        13.419313       12.147223        1.931905
 H        12.083417       12.143001        1.149001
 H        14.315965       13.709899        3.361712
 H        15.203037       12.439688        3.357577
 H        12.073950       12.154424        5.551562
 H        13.422908       12.156117        4.799417
 H        11.335621        8.510294        5.582621
 H        10.007648        8.540530        6.364521
 H         9.941415       12.455314        4.744428
 H        10.387484       13.727302        5.502879
 H        13.416764        8.748955        1.881353
 H        12.985871       10.024298        1.126891
 H        13.461845        8.787629        6.400076
 H        13.014443       10.042353        5.612253
 H         9.553159       12.219375        6.979942
 H         8.215546       12.206406        7.758258
 H         9.544346       12.160821        2.520597
 H         8.200385       12.156269        3.285888
 H        10.386144       13.701124        1.053275
 H         9.957272       12.421910        0.294254
 H        11.281291        8.480958        1.112824
 H         9.947887        8.488194        1.892937
 H        14.231205        7.178130        3.360231
 H        13.802729        8.444266        4.140378
 H        13.859345        8.503914        8.645106
 H        15.189577        8.545083        7.852597
 H        15.174246       12.436522        7.785262
 H        13.820882       12.409470        7.035921
 H         9.185725       10.124016        7.802577
 H         8.278968        8.883601        7.772643
 H         1.727138        8.719086        2.531807
 H         0.389788        8.727537        3.305265
 H         4.281128       12.087269        1.087435
 H         5.155803       10.812213        1.093989
 H         6.058270       12.409503        4.072633
 H         6.038729       12.389248        2.529224
 H         5.212805       10.894893        5.539989
 H         5.677228       12.148228        6.323616
 H         2.138511        8.520686        6.337514
 H         2.129467        8.466373        4.797026
 H         3.549437       12.433877        5.515785
 H         2.200526       12.398536        4.759092
 H         5.617079        8.733265        1.871114
 H         4.267338        8.704790        1.108759
 H         4.290200        8.778045        5.561710
 H         5.648977        8.853425        6.299420
 H         1.818365       12.224087        7.010998
 H         1.794841       12.175159        8.563700
 H         1.781760       12.087950        2.540076
 H         1.326470       10.833422        3.320684
 H         2.592770       13.659494        1.076247
 H         2.149456       12.398026        0.295030
 H         2.581757        7.163193        1.079401
 H         2.137920        8.417218        0.293203
 H         6.052546        8.523164        4.087704
 H         7.401794        8.514659        3.330492
 H         6.583386        7.416771        7.631412
 H         6.169383        8.621011        8.506493
 H         6.078465       12.492651        8.577466
 H         6.505001       13.732252        7.778448
 H         1.785229        8.934690        8.551664
 H         1.291755       10.144619        7.747272
 H         1.298919        2.746094        3.352509
 H         0.389032        1.495679        3.338157
 H         5.668339        4.776942        0.277192
 H         5.210391        3.520802        1.058163
 H         6.472652        6.414629        3.244056
 H         6.036492        5.149085        2.455769
 H         5.624555        4.805285        4.634115
 H         5.213216        3.553566        5.457006
 H         2.598363       14.513047        5.538002
 H         2.141332        1.179357        4.781915
 H         3.500170        5.111669        5.633941
 H         2.602184        6.361923        5.689915
 H         5.648441        1.424923        1.889191
 H         4.305326        1.416988        1.120900
 H         4.293003        1.445884        5.580796
 H         5.623009        1.470965        6.367700
 H         1.380034        3.473883        7.858845
 H         1.883060        4.800165        7.194447
 H         1.813720        4.850283        2.619746
 H         1.779987        4.848722        4.171224
 H         2.163984        5.051204        0.327594
 H         3.517497        5.061903        1.069046
 H         2.140278        1.184392        1.880886
 H         2.142023        1.171524        0.337415
 H         6.510320       14.504621        3.329035
 H         6.051073        1.148627        4.121932
 H         7.380656        1.237609        7.841209
 H         6.061964        1.178036        8.650826
 H         5.847962        5.577380        8.249014
 H         6.035412        5.235480        6.782022
 H         1.747866        1.438953        7.004134
 H         0.411061        1.445114        7.791227
 H         9.053446        2.770307        3.290599
 H         8.175946        1.496173        3.298775
 H        13.408148        4.826994        0.290863
 H        12.078845        4.826190        1.077871
 H        13.838646        5.063238        2.546659
 H        15.175070        5.081089        3.330380
 H        13.446977        4.892580        6.359271
 H        13.443636        4.856369        4.814249
 H        11.280470        1.233026        5.519561
 H         9.950584        1.235017        4.725866
 H        11.284820        5.154023        5.568332
 H        10.407382        6.423176        5.559537
 H        12.962663        2.713463        1.081106
 H        12.057251        1.462475        1.077703
 H        12.984830        2.771288        5.615475
 H        13.418120        1.494914        6.371555
 H         9.495206        4.878498        6.991630
 H         8.144967        4.888840        7.731394
 H         9.500358        4.872263        4.115101
 H         8.169979        4.878470        3.318682
 H         9.931563        5.113861        1.882991
 H        10.379474        6.367139        1.104132
 H         9.910851        1.214963        1.829441
 H         9.914738        1.192825        0.283850
 H        13.787336        1.193194        2.566427
 H        13.791050        1.217775        4.114355
 H        13.795829        1.159825        8.618114
 H        14.249310       14.509808        7.836121
 H        14.323634        6.434186        7.844074
 H        15.194922        5.159762        7.862542
 H         9.521190        1.497342        6.981987
 H         9.070634        2.754580        7.757219
 H         1.700973        1.369824       11.518282
 H         0.360937        1.359807       12.293614
 H         3.353623        4.900532       10.188877
 H         5.436548        4.624938       11.512577
 H         6.527751        6.420269       12.405640
 H         7.442670        5.166879       12.431156
 H         5.680318        4.806336       13.915492
 H         5.219975        3.494482       14.600129
 H         2.179875        1.139867       13.772514
 H         3.523076        1.155530       14.542532
 H         3.476968        4.975766       14.567005
 H         2.124340        4.992798       15.310240
 H         5.085953        2.424679       10.441221
 H         5.679587        1.135917       10.951180
 H         5.666420        1.384179       15.357732
 H         5.700101        1.365334       13.817095
 H         0.392750        4.784270       16.799812
 H         1.266705        3.508429       16.809111
 H         1.776598        4.685767       13.066607
 H         1.282265        3.395479       12.332123
 H         1.941892        4.765128       10.985767
 H         2.008079        4.794662        9.228259
 H         2.164153        1.135467        9.263618
 H         3.481229        1.028618       10.079483
 H         6.615802       14.366750       12.438798
 H         7.465522        1.066999       12.368744
 H         6.488291       14.441330       16.836224
 H         6.045190        1.108680       17.600847
 H         6.070154        5.048567       16.055206
 H         7.429887        5.066100       16.798197
 H         1.743872        1.403774       16.016199
 H         0.401273        1.380439       16.783922
 H         9.620675        8.723880       11.527287
 H         9.622331        8.725521       13.078945
 H        13.447432       12.144763        9.292994
 H        13.439451       12.126846       10.840877
 H        15.170445       12.333815       12.346483
 H        13.826520       12.358889       13.113113
 H        12.060424       12.150172       14.583724
 H        13.392184       12.119311       15.372292
 H         9.930400        8.441541       15.354284
 H        10.389281        7.181150       14.588759
 H         9.936768       12.412990       13.754640
 H        10.357676       13.683270       14.528449
 H        12.080915        8.763098       10.074128
 H        12.961852       10.034726       10.083689
 H        12.054865        8.767179       14.547838
 H        12.943528       10.033792       14.540757
 H         9.553694       12.087646       16.004240
 H         9.125362       10.819904       16.782093
 H         9.560479       12.097336       11.505865
 H         9.162803       10.820806       12.283448
 H         9.954545       12.419437        9.249383
 H        11.285873       12.406439       10.037135
 H         9.974201        8.493136        9.258450
 H        10.376662        7.199209       10.006714
 H        13.797572        8.467475       13.089988
 H        13.808713        8.470030       11.545355
 H        13.776793        8.491817       16.005928
 H        13.786140        8.482139       17.553095
 H        15.164289       12.334518       16.833933
 H        13.837062       12.345246       17.630648
 H         9.521017        8.716908       17.592531
 H         8.181291        8.719236       16.819599
 H         0.431177        8.683529       12.332391
 H         1.773120        8.657957       13.101794
 H         4.334704       12.222822       10.097749
 H         5.672380       12.244039       10.885348
 H         7.438307       12.293717       12.381461
 H         6.100411       12.293678       13.173185
 H         5.204834       10.781665       14.611638
 H         5.669855       12.036640       15.390492
 H         2.639526        7.097027       14.528347
 H         3.536320        8.357322       14.544629
 H         2.648933       13.631053       14.564306
 H         3.544848       12.371663       14.575047
 H         4.483911        8.978909       10.000431
 H         5.384720       10.209517       10.020913
 H         5.685237        8.719871       13.773894
 H         5.674207        8.673320       15.322550
 H         1.331946       10.795308       16.772285
 H         1.775641       12.060184       16.006140
 H         1.780414       12.050419       13.120003
 H         1.329452       10.786210       12.354045
 H         2.141614       12.338744       10.864424
 H         2.535863       13.624775       10.107257
 H         2.886104        7.540460        9.920012
 H         2.235291        8.601336       10.827783
 H         6.149337        8.544430       11.499217
 H         7.463914        8.509981       12.297801
 H         6.497759        7.170923       16.837368
 H         6.023245        8.436814       17.586123
 H         6.074597       12.334744       17.614748
 H         7.421160       12.346225       16.846180
 H         0.404605        8.698640       16.750269
 H         1.751992        8.659742       15.989972
