384
 generated by VMD
 O         9.047191        1.767362       12.280704
 O        12.997723        4.520903       10.081106
 O        14.295343        5.407003       12.335401
 O        13.005527        4.471395       14.567538
 O        10.350204        0.852946       14.551281
 O        10.430369        5.418302       14.557920
 O        13.057306        1.774498       10.078101
 O        12.952923        1.733740       14.562001
 O         9.114264        4.527146       16.799377
 O         9.120988        4.507122       12.321287
 O        10.403529        5.421081       10.083652
 O        10.504449        0.840724       10.146111
 O        14.241464        0.814841       12.340900
 O        14.266623        0.836529       16.794231
 O        14.286016        5.394000       16.801760
 O         9.068652        1.792373       16.776430
 O         9.083419        9.078168        3.339849
 O        12.948427       11.818291        1.110779
 O        14.260802       12.711617        3.334277
 O        13.007252       11.758066        5.582885
 O        10.382454        8.148392        5.566980
 O        10.434355       12.688138        5.553730
 O        12.990953        9.089902        1.097804
 O        12.985001        9.015936        5.567373
 O         9.160492       11.778445        7.819901
 O         9.090670       11.817012        3.323885
 O        10.364195       12.734937        1.076352
 O        10.408320        8.172595        1.114381
 O        14.274075        8.151477        3.314326
 O        14.248619        8.143755        7.830410
 O        14.242930       12.711173        7.835202
 O         9.102592        9.042450        7.816298
 O         1.328119        9.060560        3.345017
 O         5.197989       11.825705        1.059460
 O         6.496872       12.702736        3.308325
 O         5.197567       11.756200        5.532931
 O         2.595504        8.154513        5.611262
 O         2.598654       12.677406        5.578954
 O         5.201918        9.085446        1.060962
 O         5.187968        9.027478        5.565606
 O         1.298881       11.789993        7.831808
 O         1.309525       11.800264        3.326728
 O         2.603550       12.720141        1.089565
 O         2.626255        8.146771        1.115430
 O         6.494046        8.179177        3.305830
 O         6.486592        8.145076        7.834468
 O         6.519350       12.602376        7.756457
 O         1.304281        9.048971        7.862800
 O         1.290002        1.778666        3.269950
 O         5.231717        4.508976        1.105635
 O         6.542025        5.444091        3.315474
 O         5.218078        4.558450        5.540568
 O         2.502819        0.814281        5.510201
 O         2.608975        5.419578        5.569652
 O         5.214595        1.766025        1.048931
 O         5.036458        1.802836        5.433917
 O         1.346584        4.486404        7.809403
 O         1.309888        4.507310        3.333583
 O         2.641469        5.408119        1.111717
 O         2.632248        0.851413        1.079528
 O         6.467124        0.856626        3.302360
 O         5.894126        0.872841        7.773839
 O         6.480732        5.356369        7.853892
 O         1.266704        1.738598        7.790382
 O         9.065632        1.775160        3.320139
 O        12.974708        4.498669        1.082967
 O        14.250935        5.416634        3.331340
 O        12.991433        4.507776        5.581529
 O        10.429947        0.826626        5.520305
 O        10.402403        5.419089        5.587965
 O        12.942174        1.749776        1.075967
 O        12.998582        1.771858        5.537558
 O         9.100059        4.494576        7.852193
 O         9.118426        4.521011        3.332793
 O        10.404652        5.433940        1.091058
 O        10.345195        0.874355        1.065704
 O        14.259376        0.847735        3.295556
 O        14.240098        0.847100        7.789705
 O        14.289658        5.404004        7.828438
 O         9.295321        1.690971        7.904448
 O         1.256029        1.762773       12.394729
 O         5.203333        4.416703       10.020594
 O         6.507581        5.416516       12.369658
 O         5.195532        4.507443       14.572089
 O         2.599742        0.830909       14.579224
 O         2.634276        5.451977       14.562476
 O         5.326736        1.957606       10.109702
 O         5.157342        1.761405       14.485907
 O         1.353214        4.516619       16.806906
 O         1.361464        4.498562       12.317746
 O         2.699176        5.353101       10.024866
 O         2.456185        0.849667       10.159643
 O         6.492882        0.975141       12.050513
 O         6.499853        0.883902       16.743990
 O         6.522292        5.428425       16.802094
 O         1.317219        1.773004       16.804893
 O         9.071376        9.100891       12.300815
 O        12.994959       11.767152       10.096918
 O        14.269473       12.686119       12.341496
 O        12.977297       11.784355       14.579058
 O        10.379279        8.161228       14.529976
 O        10.386049       12.718134       14.552725
 O        12.987080        9.030403       10.081809
 O        12.978102        9.042409       14.563393
 O         9.078487       11.803069       16.782274
 O         9.056328       11.851450       12.315838
 O        10.429906       12.706555       10.080845
 O        10.383692        8.155262       10.077435
 O        14.259583        8.137587       12.327071
 O        14.255794        8.140446       16.806171
 O        14.255668       12.697180       16.825377
 O         9.118836        9.061406       16.802666
 O         1.317652        9.017230       12.321597
 O         5.204505       11.763044       10.067167
 O         6.449074       12.885941       12.252658
 O         5.213949       11.886848       14.508070
 O         2.621795        8.181095       14.585784
 O         2.588016       12.705701       14.580732
 O         5.196667        9.020747       10.087066
 O         5.198391        9.129699       14.572310
 O         1.302639       11.783985       16.810114
 O         1.313333       11.752317       12.343047
 O         2.594061       12.665995       10.094519
 O         2.605522        8.087824       10.079793
 O         6.481794        8.175842       12.348564
 O         6.524878        8.179442       16.782221
 O         6.492808       12.744432       16.771416
 O         1.308062        9.050080       16.831877
 H         9.091521        2.731002       12.271308
 H         9.563479        1.460178       11.525898
 H        13.467384        4.849916        9.307205
 H        13.470347        4.843514       10.855287
 H        13.861722        5.063528       13.124154
 H        15.202271        5.086648       12.350727
 H        12.959661        3.509141       14.565230
 H        12.097077        4.791840       14.563018
 H         9.877085        1.176650       13.779584
 H         9.885979        1.191196       15.325089
 H        10.406653        6.380868       14.527678
 H         9.970617        5.110875       13.769896
 H        13.050737        2.737806       10.062870
 H        13.479671        1.482073        9.263080
 H        12.044380        1.416038       14.544783
 H        13.378301        1.396912       13.765580
 H         9.593371        4.851921       16.029743
 H         9.579500        4.858645       17.575727
 H         9.552386        4.843443       11.526986
 H         8.220262        4.842334       12.313890
 H        11.320657        5.126041       10.082857
 H        10.421557        6.384756       10.083126
 H        11.422878        1.136188       10.147244
 H        10.511850       14.478076       10.131497
 H        14.238702       14.453427       12.312035
 H        13.826193        1.126279       11.529066
 H        15.164813        1.182356       16.777853
 H        13.825752        1.159857       16.001318
 H        13.857099        5.051862       16.009756
 H        15.196689        5.081727       16.784071
 H         9.099384        2.755064       16.805944
 H         9.519830        1.479916       17.569153
 H         8.166327        8.784683        3.323943
 H         9.065115       10.041299        3.333143
 H        12.043978       12.148847        1.124723
 H        13.383886       12.144423        1.906259
 H        15.176156       12.411263        3.326500
 H        14.284844       13.674745        3.329669
 H        13.458845       12.071643        4.792063
 H        13.016052       10.795520        5.548968
 H         9.906213        8.484569        4.800057
 H         9.921195        8.479897        6.345156
 H        11.335179       12.346692        5.575961
 H        10.000936       12.366649        6.351124
 H        12.991480       10.053171        1.073127
 H        13.433301        8.783672        0.298882
 H        12.075002        8.701584        5.542683
 H        13.417616        8.689600        4.770940
 H         8.254399       12.097803        7.824957
 H         9.579895       12.117201        8.618498
 H         9.575676       12.130815        4.094613
 H         9.553786       12.148209        2.547052
 H         9.910201       12.425201        0.285409
 H        10.342844       13.697310        1.048630
 H         9.965633        8.497518        1.905695
 H        11.310357        8.509348        1.137119
 H        13.845197        8.503278        2.526290
 H        15.179936        8.478650        3.308031
 H        14.256606        7.180845        7.809773
 H        13.802497        8.432374        7.026484
 H        13.790746       12.356830        7.061872
 H        13.781898       12.374148        8.610423
 H         9.099608       10.006142        7.822379
 H         8.183150        8.759294        7.822528
 H         1.811538        8.727573        2.581175
 H         1.783802        8.734298        4.127992
 H         5.638053       12.141545        1.856019
 H         4.289937       12.144558        1.094641
 H         7.416155       12.413788        3.314640
 H         6.511618       13.665083        3.313967
 H         5.203962       10.792637        5.510948
 H         5.653584       12.060900        4.741068
 H         2.135643        8.452785        6.403358
 H         2.576381        7.191759        5.622534
 H         2.169045       12.352490        6.377657
 H         3.503577       12.349523        5.592075
 H         5.672851        8.785282        0.276233
 H         5.207053       10.048236        1.036910
 H         4.279583        8.708068        5.605269
 H         5.627486        8.710612        6.361068
 H         1.732929       12.113141        8.627652
 H         0.397137       12.128263        7.850101
 H         1.765349       12.092370        4.123439
 H         1.322844       10.837136        3.344906
 H         2.133600       12.384118        0.318538
 H         2.136132       12.389078        1.864148
 H         2.660343        7.184156        1.116703
 H         3.537556        8.457810        1.090126
 H         6.022522        8.510121        2.533960
 H         6.013072        8.481885        4.083065
 H         6.033768        8.438789        8.632797
 H         6.483982        7.185067        7.859533
 H         6.447429       13.548156        7.753363
 H         6.061159       12.300632        6.959733
 H         1.283619       10.012193        7.855776
 H         0.387199        8.754524        7.853549
 H         1.775469        1.449116        2.505515
 H         1.726652        1.421363        4.050469
 H         5.692156        4.846128        0.330113
 H         5.709547        4.841299        1.873734
 H         6.554842        6.407502        3.307264
 H         7.459401        5.149500        3.325029
 H         5.169493        3.601119        5.474207
 H         5.689675        4.864179        4.756876
 H         2.073092        1.116140        6.317626
 H         2.525663       14.453595        5.552626
 H         2.172717        5.091151        4.775712
 H         3.524464        5.124775        5.529481
 H         5.668148        1.483990        0.247512
 H         5.227939        2.729308        1.051147
 H         4.132561        1.469678        5.376887
 H         5.525702        1.450204        4.680229
 H         1.799005        4.782468        7.011536
 H         1.330303        3.523987        7.780366
 H         1.278462        3.544475        3.315737
 H         0.396787        4.813871        3.330085
 H         2.192432        5.080954        1.898663
 H         3.544252        5.073957        1.141049
 H         2.644756       14.489954        1.080178
 H         3.548941        1.146391        1.066821
 H         6.058300        1.176126        2.490108
 H         7.369564        1.193305        3.306574
 H         5.595095        1.586649        9.252275
 H         5.569067        1.224924        6.919043
 H         7.392537        5.043374        7.831180
 H         6.064423        5.064347        7.034363
 H         1.661893        1.417476        8.603612
 H         0.354888        1.420458        7.791886
 H         9.093853        2.737556        3.347793
 H         9.532769        1.461998        4.101170
 H        12.973074        3.535663        1.067394
 H        13.444635        4.786383        0.292523
 H        14.248516        6.379681        3.301912
 H        13.801247        5.112525        2.535819
 H        13.415123        4.841811        4.782985
 H        12.088625        4.843202        5.574934
 H        10.039996        1.107223        6.351545
 H        10.431177       14.464453        5.537191
 H         9.943377        5.116539        6.377030
 H        10.378407        6.382689        5.604608
 H        13.412947        1.417883        0.304327
 H        13.413857        1.419313        1.848595
 H        12.969420        2.735067        5.550862
 H        12.086097        1.464442        5.516150
 H         9.156930        3.537241        7.881600
 H         9.556509        4.812611        8.640054
 H         9.594598        4.846190        2.561032
 H         9.586958        4.846027        4.108819
 H        11.318359        5.127841        1.085277
 H        10.431499        6.396864        1.101842
 H         9.913603        1.200788        1.862540
 H        11.254431        1.192387        1.090122
 H        13.836317        1.189875        4.090676
 H        15.160815        1.187952        3.293323
 H        13.786081        1.147078        6.994233
 H        14.219193       14.485751        7.781018
 H        15.194261        5.076104        7.801149
 H        13.850813        5.073159        7.037118
 H         8.443847        1.282820        7.975899
 H         9.767630        1.397730        8.700491
 H         1.702005        1.418687       13.177307
 H         0.351300        1.427247       12.413638
 H         5.660903        4.772255        9.238056
 H         4.291855        4.762395       10.005139
 H         6.033544        5.080313       13.140883
 H         6.042597        5.092450       11.600632
 H         4.286697        4.830514       14.574589
 H         5.147625        3.546756       14.561424
 H         2.154971        1.141939       15.376069
 H         2.576367       14.468817       14.602201
 H         2.619884        6.415778       14.548362
 H         2.181153        5.150947       13.768658
 H         5.858413        1.546926       10.900613
 H         5.294378        2.995041       10.079256
 H         5.561855        1.474898       13.669376
 H         4.258467        1.408144       14.496933
 H         1.819298        4.857900       16.037092
 H         1.818911        4.844303       17.583971
 H         1.818210        4.761206       11.514557
 H         1.338616        3.535639       12.326064
 H         2.213482        5.063985        9.242562
 H         2.658772        6.317822       10.032768
 H         3.333734        1.209136       10.197448
 H         2.011766        1.166036       10.960240
 H         7.426051        1.244373       12.127524
 H         6.471540       14.605049       12.091648
 H         7.403415        1.220280       16.730253
 H         6.068520        1.194840       15.944097
 H         6.081069        5.088455       16.017866
 H         7.427725        5.100409       16.778059
 H         1.341002        2.735742       16.823231
 H         1.778248        1.469888       17.594612
 H         9.038988       10.063150       12.300606
 H         8.158475        8.796000       12.313878
 H        13.011997       10.804124       10.111594
 H        13.452749       12.065845       10.889930
 H        15.172956       12.352641       12.363438
 H        13.833639       12.361735       13.137362
 H        12.985408       10.821375       14.593958
 H        13.426462       12.080244       15.378017
 H         9.904669        8.504810       13.765733
 H         9.920852        8.485654       15.312157
 H        11.298655       12.411090       14.556051
 H        10.411869       13.680624       14.555293
 H        12.076321        8.718586       10.061026
 H        13.410919        8.707194        9.278731
 H        12.069006        8.725955       14.531930
 H        13.411819        8.718691       13.765975
 H         8.175079       12.134440       16.755999
 H         9.519115       12.129146       15.990251
 H         8.171695       12.224902       12.313901
 H         9.496099       12.170253       13.111394
 H        11.323954       12.347414       10.112531
 H         9.972751       12.391091       10.866613
 H         9.910943        8.499284       10.842700
 H         9.917596        8.475660        9.297910
 H        13.812062        8.431119       11.525506
 H        14.254951        7.174459       12.311110
 H        13.805254        8.433253       16.006203
 H        14.248852        7.177529       16.789551
 H        14.254653       13.660319       16.826355
 H        13.789697       12.419075       17.621613
 H         9.117695       10.024292       16.819014
 H         9.577128        8.770521       17.598166
 H         0.410011        8.695305       12.349614
 H         1.751599        8.712203       13.125062
 H         5.662498       12.025637        9.264732
 H         5.207726       10.798992       10.076267
 H         5.997733       12.553544       13.037296
 H         6.015105       12.475910       11.495708
 H         5.648134       12.205660       15.306946
 H         4.298758       12.182304       14.556782
 H         3.517632        8.534185       14.601243
 H         2.181524        8.499526       15.381214
 H         2.123643       12.361152       15.351694
 H         2.130344       12.361396       13.806156
 H         4.292892        8.689763       10.107679
 H         5.628679        8.708166       10.889441
 H         5.670884        8.835328       15.358159
 H         5.223561       10.092332       14.568656
 H         1.281866       10.820770       16.819944
 H         0.386734       12.083033       16.818447
 H         1.770117       12.051182       11.550194
 H         1.322287       10.789207       12.317357
 H         3.515396       12.385871       10.077924
 H         2.591554       13.625369       10.118250
 H         2.137604        8.412786       10.856632
 H         2.140006        8.439783        9.312708
 H         6.483529        7.215606       12.390193
 H         6.027289        8.490266       13.138003
 H         7.445111        8.464649       16.790268
 H         6.536054        7.216774       16.779377
 H         6.490682       13.706783       16.793941
 H         6.032974       12.445933       17.563637
 H         1.742479        8.719543       17.625549
 H         0.406301        8.711823       16.841846
