384
 generated by VMD
 O         9.082842        1.788742       12.306167
 O        12.974356        4.526695       10.058417
 O        14.245202        5.395403       12.328086
 O        12.957298        4.472678       14.564950
 O        10.385844        0.872308       14.544744
 O        10.376752        5.386247       14.532260
 O        12.992502        1.790736       10.062096
 O        12.991005        1.736608       14.560272
 O         9.106533        4.512949       16.796762
 O         9.058775        4.517667       12.293126
 O        10.367951        5.387479       10.041924
 O        10.374602        0.909019       10.059067
 O        14.269535        0.849535       12.304408
 O        14.306315        0.869435       16.801563
 O        14.279230        5.423263       16.769798
 O         9.097877        1.783262       16.789450
 O         9.097804        9.047917        3.269745
 O        13.024103       11.804738        1.085524
 O        14.364279       12.736984        3.322199
 O        13.056785       11.782447        5.530718
 O        10.419606        8.068701        5.473878
 O        10.424003       12.652391        5.385133
 O        12.977466        9.062859        1.045706
 O        13.010269        9.038826        5.502242
 O         8.918536       12.082803        8.141688
 O         9.123548       11.779495        3.192467
 O        10.428170       12.706616        1.009509
 O        10.393064        8.185577        1.029914
 O        14.280847        8.116926        3.265918
 O        14.286653        8.183203        7.775435
 O        14.276799       12.708893        7.827750
 O         9.134141        8.937936        7.783915
 O         1.319286        9.057881        3.305314
 O         5.230862       11.807998        1.103577
 O         6.572687       12.718372        3.334410
 O         5.271454       11.870932        5.774188
 O         2.657895        8.172555        5.527109
 O         2.718983       12.714296        5.661397
 O         5.201609        9.065193        1.082164
 O         5.213707        9.175294        5.579185
 O         1.343776       11.834735        7.850294
 O         1.383002       11.797962        3.387665
 O         2.641245       12.681021        1.121690
 O         2.619606        8.176349        1.077097
 O         6.487712        8.185688        3.347778
 O         6.459256        8.127162        7.822218
 O         6.478938       12.887677        7.686545
 O         1.348504        9.077695        7.767560
 O         1.335600        1.752175        3.344426
 O         5.202296        4.514498        1.115987
 O         6.490836        5.434124        3.350581
 O         5.201489        4.475735        5.596598
 O         2.634964        0.848847        5.572874
 O         2.626893        5.422877        5.566515
 O         5.198194        1.771874        1.101968
 O         5.227824        1.705580        5.583209
 O         1.310272        4.521410        7.815516
 O         1.349423        4.491063        3.316474
 O         2.626137        5.438531        1.087134
 O         2.627579        0.824966        1.106011
 O         6.515701        0.864630        3.336144
 O         6.517978        0.746857        7.694932
 O         6.460380        5.380564        7.850568
 O         1.330625        1.780885        7.799704
 O         9.091776        1.794446        3.290793
 O        12.978994        4.493985        1.046457
 O        14.278510        5.369034        3.298498
 O        13.003007        4.491274        5.566102
 O        10.371905        0.847002        5.533597
 O        10.398143        5.336649        5.559800
 O        12.993978        1.759162        1.089217
 O        12.979311        1.753358        5.579167
 O         9.051942        4.455527        7.810115
 O         9.091291        4.535991        3.291104
 O        10.406976        5.446204        1.066821
 O        10.406513        0.854777        1.072747
 O        14.283738        0.876116        3.335244
 O        14.276507        0.850663        7.820352
 O        14.255067        5.443921        7.820580
 O         9.029512        1.676929        7.779551
 O         1.316292        1.775692       12.317915
 O         5.175638        4.485619       10.115664
 O         6.476851        5.426968       12.339024
 O         5.219065        4.504313       14.583914
 O         2.625525        0.847656       14.556806
 O         2.628913        5.427535       14.558412
 O         5.233182        1.713812       10.092416
 O         5.213614        1.755047       14.561706
 O         1.330780        4.524013       16.792587
 O         1.306571        4.509470       12.338125
 O         2.583712        5.394287       10.080139
 O         2.606404        0.867405       10.063213
 O         6.500135        0.835375       12.333858
 O         6.515135        0.881519       16.809134
 O         6.519962        5.403833       16.825939
 O         1.361856        1.780046       16.802956
 O         9.079160        9.047345       12.268736
 O        12.971714       11.793026       10.087634
 O        14.240429       12.715858       12.338157
 O        12.979605       11.812942       14.596077
 O        10.360231        8.120543       14.509833
 O        10.414845       12.746043       14.575237
 O        13.000669        9.035625       10.041712
 O        12.935823        9.073085       14.538669
 O         9.092933       11.796412       16.759510
 O         9.104137       11.792643       12.398273
 O        10.407640       12.759163       10.219790
 O        10.414416        8.128715       10.040585
 O        14.246418        8.134983       12.314013
 O        14.261481        8.157788       16.759489
 O        14.310713       12.727010       16.810555
 O         9.070005        9.056347       16.736269
 O         1.292749        9.045999       12.303752
 O         5.120691       11.713938       10.199974
 O         6.495140       12.688640       12.416695
 O         5.179789       11.815709       14.629364
 O         2.611872        8.163270       14.545042
 O         2.594192       12.714800       14.585218
 O         5.143229        9.019855       10.080056
 O         5.185257        9.078197       14.563775
 O         1.342801       11.792136       16.831881
 O         1.270788       11.781862       12.378566
 O         2.544852       12.722652       10.165636
 O         2.563884        8.129589       10.041923
 O         6.485145        8.167539       12.330737
 O         6.482677        8.140379       16.796354
 O         6.517085       12.746607       16.827702
 O         1.312601        9.057590       16.783651
 H         9.045437        2.752134       12.304898
 H         8.173176        1.474760       12.315890
 H        13.407298        4.865056        9.266651
 H        12.064482        4.840710       10.032292
 H        13.770777        5.056020       13.094646
 H        13.784948        5.072385       11.546132
 H        12.983528        3.510212       14.589059
 H        13.427445        4.786313       15.345000
 H         9.916549        1.205731       13.772779
 H         9.920537        1.206483       15.319325
 H        11.280332        5.052946       14.557069
 H         9.943789        5.068769       15.332196
 H        12.973788        2.754226       10.055371
 H        12.074819        1.501787       10.056894
 H        12.081520        1.420740       14.540312
 H        13.417316        1.415815       13.758422
 H         8.200091        4.838561       16.825773
 H         9.547621        4.857110       17.581430
 H         9.506148        4.832208       13.086355
 H         8.158294        4.858409       12.327545
 H         9.895844        5.049603        9.274234
 H         9.894646        5.072340       10.819334
 H        10.402044       14.554017       10.143200
 H         9.919349        1.228960       10.846636
 H        13.838572        1.189319       11.512975
 H        15.173374        1.182440       12.292420
 H        13.866231        1.183247       16.004503
 H        15.207784        1.207322       16.778532
 H        14.294977        6.386514       16.766039
 H        15.196154        5.128240       16.777662
 H         9.116560        2.746686       16.815145
 H         9.564940        1.475641       17.573666
 H         8.187447        8.736689        3.316998
 H         9.544786        8.708545        4.052667
 H        13.498191       12.138781        0.315572
 H        13.491792       12.135409        1.858575
 H        14.323410       13.699143        3.344716
 H        13.900781       12.421410        4.105666
 H        13.031479       10.818644        5.518813
 H        12.142775       12.072124        5.474310
 H        10.412105        7.105122        5.498104
 H         9.973972        8.352385        6.275394
 H         9.960028       12.237255        6.099675
 H         9.972997       12.343904        4.584285
 H        12.976121       10.025656        1.069362
 H        12.055227        8.782663        1.044063
 H        12.109686        8.699469        5.484600
 H        13.442464        8.703254        4.708899
 H         9.456569       12.356029        8.914768
 H         7.389478       12.559858        7.811744
 H         9.582837       12.072390        2.395236
 H         9.132836       10.815108        3.195135
 H        11.333218       12.377904        1.007645
 H         9.996702       12.368566        0.216482
 H         9.913935        8.500216        0.255954
 H         9.913622        8.501188        1.804241
 H        14.275278        7.153963        3.251152
 H        13.818891        8.414191        2.474780
 H        15.192948        8.507085        7.747389
 H        13.853776        8.499351        6.974936
 H        14.260999       13.671425        7.798589
 H        13.836488       12.399670        7.029543
 H         9.605286        8.680258        8.589966
 H         9.185385        9.882382        7.731535
 H         1.302723       10.019794        3.339326
 H         0.404251        8.756641        3.297571
 H         5.704438       12.130145        1.875915
 H         5.697814       12.149108        0.332460
 H         7.474938       12.374143        3.310450
 H         6.181284       12.405166        4.147718
 H         4.344903       12.164679        5.731309
 H         5.264406       10.899840        5.724646
 H         2.182006        8.450599        4.737196
 H         2.649262        7.209476        5.530173
 H         2.670470       13.677224        5.640405
 H         2.226003       12.430891        6.441233
 H         4.281677        8.777945        1.083058
 H         5.192544       10.027811        1.089107
 H         5.662756        8.843542        4.792560
 H         4.316491        8.822524        5.543768
 H         0.431687       12.146622        7.851056
 H         1.740723       12.143794        8.670922
 H         0.488658       12.160501        3.393672
 H         1.820322       12.115520        4.181468
 H         3.552090       12.367390        1.133445
 H         2.223046       12.352111        1.924399
 H         2.143709        8.501420        1.849570
 H         2.143593        8.494903        0.302754
 H         6.473500        7.222846        3.340934
 H         6.032497        8.472514        2.549096
 H         7.373339        8.422257        7.806340
 H         6.045887        8.489888        7.032041
 H         6.007470       12.449542        6.880425
 H         6.488315       13.927624        7.653902
 H         1.813245        8.791040        6.974376
 H         1.368474       10.039597        7.775702
 H         0.413974        1.469699        3.340402
 H         1.329231        2.715633        3.330741
 H         5.174284        3.551952        1.111663
 H         4.288582        4.819716        1.101174
 H         6.028645        5.093812        4.122421
 H         6.022080        5.098664        2.578509
 H         5.649717        4.774879        6.395358
 H         5.226021        3.515607        5.608456
 H         2.167022        1.192500        6.342334
 H         2.160113        1.169157        4.796686
 H         2.180054        5.104269        6.357331
 H         3.524249        5.075095        5.597276
 H         4.299759        1.424637        1.119454
 H         5.637618        1.441552        1.892000
 H         5.657651        1.402561        4.773171
 H         4.311322        1.404075        5.551581
 H         1.737507        4.840669        8.617243
 H         0.406501        4.854153        7.831658
 H         1.807056        4.826581        4.094294
 H         1.814814        4.837702        2.547540
 H         2.165936        5.139888        0.295495
 H         2.614054        6.401759        1.067935
 H         2.616364       14.464362        1.130270
 H         2.165666        1.128352        1.894940
 H         7.424360        1.187396        3.320926
 H         6.568071       14.505694        3.328547
 H         6.059825        1.128223        6.922987
 H         7.427550        1.094236        7.703739
 H         6.007038        5.097736        8.651150
 H         6.444458        6.343593        7.848165
 H         1.782333        1.482305        8.595388
 H         1.331044        2.744314        7.824246
 H         9.100142        2.757704        3.263648
 H         9.554861        1.487068        2.504014
 H        12.079060        4.837174        1.037633
 H        13.415428        4.834865        0.258131
 H        13.846138        5.039943        2.503321
 H        15.186172        5.048699        3.279700
 H        13.450345        4.782456        4.764348
 H        13.015980        3.528402        5.555829
 H         9.924457        1.177473        4.745948
 H        10.367419       14.491272        5.465981
 H         9.958631        5.020577        6.354594
 H        11.307525        5.019492        5.588997
 H        12.992598        2.722073        1.054323
 H        13.459345        1.458648        0.301089
 H        12.075014        1.425653        5.590446
 H        13.410441        1.422602        6.374533
 H         9.012768        3.495983        7.796243
 H         8.141648        4.769775        7.817322
 H         9.531991        4.828040        4.096210
 H         8.187570        4.866166        3.331151
 H         9.942188        5.157106        1.859539
 H        10.395958        6.409576        1.074305
 H        11.324396        1.147350        1.076643
 H        10.425193       14.494374        1.056632
 H        13.810634        1.198720        2.560252
 H        13.805947        1.193011        4.108917
 H        13.847325        1.189762        8.612949
 H        15.179610        1.184475        7.828905
 H        13.814746        5.132993        7.022470
 H        14.252374        6.406646        7.782769
 H         9.514584        1.393121        8.563524
 H         9.530123        1.377041        7.011235
 H         1.774607        1.491378       11.521008
 H         1.321111        2.739340       12.313004
 H         5.211719        3.525716       10.130721
 H         5.637242        4.795309       10.902951
 H         6.031620        5.128107       13.139604
 H         6.462426        6.389970       12.353240
 H         5.675971        4.792265       15.381698
 H         5.225210        3.541548       14.592403
 H         2.164803        1.154761       13.769166
 H         2.595058       14.486793       14.538998
 H         2.652364        6.390743       14.553738
 H         3.543329        5.126270       14.563746
 H         5.697880        1.388067        9.324519
 H         5.700467        1.381124       10.869575
 H         5.648767        1.432622       15.358514
 H         4.309340        1.423814       14.581120
 H         1.795699        4.820142       16.002508
 H         1.352695        3.561367       16.782122
 H         0.399567        4.833217       12.360199
 H         1.747962        4.847997       13.124389
 H         2.149387        5.077539       10.879498
 H         3.488226        5.065696       10.108209
 H         3.528745        1.137705       10.078956
 H         2.601043       14.507204       10.100606
 H         6.493834       14.475541       12.380010
 H         6.040091        1.148167       13.121837
 H         7.417168        1.220603       16.823483
 H         6.079020        1.210033       17.602493
 H         6.055102        5.109848       17.616745
 H         6.495310        6.366997       16.832846
 H         1.820678        1.437177       17.576857
 H         1.825328        1.441054       16.029728
 H         9.548205        8.762501       11.477840
 H         9.108548       10.009212       12.287244
 H        13.432605       12.125751        9.310638
 H        13.447742       12.121743       10.857933
 H        14.238948       13.679218       12.345744
 H        13.784827       12.427065       13.136148
 H        12.973237       10.849685       14.600316
 H        13.455452       12.098281       15.383336
 H        10.359561        7.157143       14.496460
 H         9.906449        8.413036       13.712580
 H        11.331277       12.448254       14.585993
 H        10.427900       13.709655       14.564258
 H        12.998845        9.998130       10.041040
 H        13.458320        8.761619        9.239300
 H        13.377052        8.742546       13.748922
 H        12.035177        8.732605       14.512306
 H         9.554049       12.105887       15.972159
 H         9.088805       10.833664       16.723097
 H         8.196456       12.111851       12.424489
 H         9.542418       12.126723       13.189979
 H         9.987964       12.418015       11.019978
 H        11.301725       12.398159       10.181167
 H        11.334542        8.415380       10.040041
 H        10.419701        7.165089       10.046616
 H        14.228504        7.171779       12.306986
 H        13.806506        8.426483       11.508134
 H        13.780531        8.484802       15.992088
 H        13.796900        8.486991       17.537474
 H        15.225827       12.425345       16.813700
 H        14.332989       13.689806       16.801548
 H         8.166493        8.723131       16.733881
 H         9.499706        8.707124       15.947951
 H         1.714815        8.722046       11.501466
 H         0.390841        8.706405       12.295416
 H         5.536837       12.031305        9.408525
 H         5.136704       10.746492       10.141828
 H         6.023990       12.379668       13.200296
 H         6.018520       12.334866       11.662682
 H         5.620047       12.155506       15.416051
 H         4.274637       12.145756       14.641009
 H         3.512174        8.506519       14.529072
 H         2.175782        8.483523       13.748487
 H         2.134661       12.386323       15.365953
 H         2.120726       12.367561       13.821388
 H         4.238861        8.684425       10.049973
 H         5.586284        8.701180        9.286770
 H         5.203350       10.041001       14.568930
 H         5.656062        8.791943       13.773849
 H         1.341959       10.828692       16.835587
 H         1.804552       12.075460       17.628551
 H         0.356000       12.085483       12.370770
 H         1.249218       10.819049       12.347278
 H         3.432775       12.359413       10.205433
 H         2.089190       12.397032       10.951423
 H         2.551229        7.166369       10.029557
 H         2.129130        8.430253        9.236998
 H         7.392407        8.487919       12.280587
 H         6.036970        8.473384       11.536337
 H         6.023015        8.478299       17.573215
 H         6.005702        8.471220       16.028376
 H         7.428192       12.434850       16.802931
 H         6.549160       13.709555       16.825344
 H         0.406462        8.732107       16.753769
 H         1.753027        8.733433       15.990625
