384
 generated by VMD
 O         9.103173        1.781206       12.320518
 O        12.967925        4.489439       10.037654
 O        14.258413        5.400789       12.299179
 O        12.985503        4.507318       14.553020
 O        10.407721        0.867629       14.560949
 O        10.407698        5.441348       14.575875
 O        12.974236        1.749307       10.048567
 O        13.000868        1.761595       14.557841
 O         9.104081        4.528645       16.795092
 O         9.094601        4.521149       12.345826
 O        10.345721        5.379213       10.065248
 O        10.368877        0.877487       10.056594
 O        14.282576        0.856000       12.299291
 O        14.292792        0.851824       16.800871
 O        14.263166        5.406896       16.801771
 O         9.101042        1.788101       16.789911
 O         9.110491        9.051219        3.345925
 O        12.947415       11.795402        1.071385
 O        14.226601       12.713716        3.319156
 O        12.941369       11.800178        5.570268
 O        10.438035        8.136753        5.594825
 O        10.349980       12.732774        5.603178
 O        12.971442        9.050669        1.110652
 O        13.003745        9.057068        5.580200
 O         9.070142       11.871510        7.866277
 O         9.080673       11.806709        3.348720
 O        10.362540       12.729684        1.103442
 O        10.394282        8.151361        1.098229
 O        14.269351        8.125412        3.341910
 O        14.296426        8.144448        7.820796
 O        14.252000       12.703382        7.822580
 O         9.246330        9.132997        7.896093
 O         1.298100        9.066992        3.340856
 O         5.168775       11.804180        1.061874
 O         6.495217       12.730880        3.265363
 O         5.159569       11.849841        5.497875
 O         2.577970        8.137122        5.578371
 O         2.566364       12.703934        5.561334
 O         5.155011        9.072222        1.033120
 O         5.077850        9.149379        5.247650
 O         1.314196       11.790513        7.818587
 O         1.273270       11.798062        3.332362
 O         2.572384       12.701190        1.103605
 O         2.584810        8.143153        1.107678
 O         6.520155        8.111892        3.180469
 O         6.825961        7.994021        6.856568
 O         6.440829       12.702726        7.796181
 O         1.351788        9.038059        7.843804
 O         1.326896        1.739279        3.310896
 O         5.185716        4.493844        1.046386
 O         6.466741        5.356005        3.255507
 O         5.245858        4.501204        5.465606
 O         2.618592        0.823154        5.538864
 O         2.695103        5.353840        5.551799
 O         5.218441        1.765079        1.092405
 O         5.229013        1.693376        5.591294
 O         1.349582        4.509543        7.786070
 O         1.328853        4.476462        3.355364
 O         2.614556        5.411561        1.102263
 O         2.628331        0.838778        1.073673
 O         6.519846        0.844022        3.322325
 O         6.486061        0.866922        7.845870
 O         6.668187        5.450830        7.287008
 O         1.336893        1.763415        7.782491
 O         9.101183        1.768471        3.320539
 O        12.980785        4.504681        1.098433
 O        14.278378        5.384511        3.349794
 O        12.955005        4.473558        5.571079
 O        10.379273        0.884277        5.588628
 O        10.350070        5.393144        5.532312
 O        12.975919        1.763874        1.077927
 O        12.976987        1.746659        5.566287
 O         8.922446        4.477292        7.617989
 O         9.059238        4.503058        3.281563
 O        10.404626        5.419167        1.094154
 O        10.382026        0.870331        1.081785
 O        14.269324        0.849671        3.322699
 O        14.277102        0.838447        7.798829
 O        14.277806        5.399381        7.798470
 O         9.089037        1.801346        7.818454
 O         1.333788        1.744527       12.305978
 O         5.088212        4.538666       10.243657
 O         6.498271        5.423335       12.492004
 O         5.181386        4.496960       14.667032
 O         2.634225        0.878236       14.553304
 O         2.611186        5.410870       14.584577
 O         5.212036        1.775402       10.082373
 O         5.217400        1.769392       14.571002
 O         1.314272        4.493934       16.797762
 O         1.292036        4.475736       12.363827
 O         2.503209        5.415586       10.097616
 O         2.608258        0.855676       10.041042
 O         6.505752        0.882672       12.318784
 O         6.517032        0.869415       16.809807
 O         6.529694        5.448699       16.838068
 O         1.344118        1.754892       16.791235
 O         9.119731        9.083776       12.387778
 O        12.954793       11.808011       10.071164
 O        14.247444       12.725275       12.316129
 O        12.946870       11.826608       14.550790
 O        10.430207        8.171663       14.612383
 O        10.367083       12.726210       14.557186
 O        13.016450        9.062342       10.082988
 O        12.997758        9.094507       14.580548
 O         9.077188       11.818903       16.803650
 O         9.059770       11.814269       12.339373
 O        10.370418       12.740514       10.114148
 O        10.438337        8.165052       10.143433
 O        14.252785        8.146400       12.346045
 O        14.264009        8.150568       16.820175
 O        14.247509       12.722403       16.782320
 O         9.101152        9.082647       16.830164
 O         1.267592        9.081406       12.422148
 O         5.163908       11.831005       10.083997
 O         6.474710       12.739306       12.313879
 O         5.192412       11.858634       14.570766
 O         2.609874        8.158055       14.614998
 O         2.605160       12.743390       14.578756
 O         5.073008        9.117597       10.465444
 O         5.158894        9.123640       14.683543
 O         1.297830       11.819985       16.795748
 O         1.306059       11.826030       12.343073
 O         2.562926       12.716599       10.070161
 O         2.490396        8.163678       10.172262
 O         6.539579        8.171017       12.592093
 O         6.524336        8.173839       16.813772
 O         6.506447       12.744385       16.803528
 O         1.299555        9.078007       16.843933
 H         9.109629        2.744289       12.350172
 H         9.566260        1.478377       13.108588
 H        12.050230        4.776340       10.041255
 H        12.952101        3.526196       10.043618
 H        13.831439        5.077742       11.499664
 H        15.159524        5.059232       12.296585
 H        12.995047        3.544483       14.536221
 H        13.432639        4.801326       13.751813
 H        11.327753        1.152059       14.560347
 H        10.414329       14.506491       14.559278
 H        10.440994        6.404514       14.585732
 H        11.319506        5.131386       14.568233
 H        13.406805        1.421002        9.253844
 H        12.067386        1.425555       10.030591
 H        13.476950        1.436706       15.329377
 H        13.467653        1.433924       13.782096
 H         9.582848        4.847336       17.567307
 H         9.574548        4.862311       16.022429
 H         9.547140        4.860448       13.125557
 H         8.188587        4.844616       12.394675
 H         9.872302        5.079876       10.851402
 H         9.820672        5.115588        9.313984
 H        10.353847       14.516627       10.097578
 H         9.925997        1.190300       10.853371
 H        13.817600        1.156085       11.511507
 H        14.254878       14.494878       12.283938
 H        14.301605       14.490517       16.797789
 H        15.211190        1.142369       16.799473
 H        15.168524        5.078665       16.779793
 H        13.831544        5.083793       16.003172
 H         9.559080        1.483639       15.998760
 H         9.110044        2.750993       16.763721
 H         9.537794        8.717495        4.140893
 H         8.213699        8.704696        3.334322
 H        12.929676       10.832603        1.082606
 H        12.032180       12.094501        1.078784
 H        13.756913       12.382383        2.546216
 H        13.756915       12.385389        4.093322
 H        12.930642       10.837320        5.571354
 H        12.024951       12.094213        5.583576
 H        10.053811        8.485745        6.404275
 H        11.349513        8.452789        5.579790
 H         9.893489       12.454254        6.404542
 H        10.356262       13.694983        5.610430
 H        12.066750        8.720037        1.128043
 H        13.406572        8.719019        1.903239
 H        13.475448        8.732717        6.355433
 H        13.473298        8.722537        4.808198
 H         8.141038       12.122472        7.849698
 H         9.100654       10.910005        7.886322
 H         9.106505       10.845234        3.368570
 H         9.518700       12.112415        4.150394
 H        10.361442       13.692566        1.116618
 H         9.912928       12.436064        1.902285
 H         9.925883        8.491368        0.326634
 H         9.930447        8.482720        1.873628
 H        15.181281        8.436039        3.331961
 H        14.300738        7.162948        3.342645
 H        15.214437        8.436543        7.826871
 H        14.310931        7.181787        7.812992
 H        13.777348       12.380086        8.596020
 H        13.779160       12.377560        7.050051
 H         9.633863        8.786911        8.710791
 H         8.375545        8.761642        7.830231
 H         1.743079        8.768771        4.140324
 H         1.298441       10.030509        3.358891
 H         5.144843       10.841061        1.052726
 H         4.252753       12.101177        1.079236
 H         6.061511       12.389427        2.475332
 H         7.394770       12.387072        3.270906
 H         5.597636       12.189521        4.710644
 H         4.254820       12.181149        5.491903
 H         2.602736        7.176591        5.594024
 H         2.158416        8.422252        6.399227
 H         2.083915       12.373668        4.795365
 H         2.117742       12.369996        6.346520
 H         4.255681        8.728044        1.073248
 H         5.626304        8.714524        1.792051
 H         5.067273       10.111571        5.330813
 H         4.177639        8.828772        5.379247
 H         0.405917       12.108556        7.841621
 H         1.742108       12.126246        8.614435
 H         0.367991       12.126061        3.304469
 H         1.714544       12.129437        2.541888
 H         2.583907       13.663966        1.075021
 H         2.121354       12.408669        0.303444
 H         2.124738        8.484091        1.881993
 H         2.112539        8.479959        0.336863
 H         5.974048        8.454072        3.894074
 H         6.482748        7.151444        3.224149
 H         6.206983        8.423495        6.234365
 H         6.728827        6.419209        7.166905
 H         5.996349       12.421618        6.990897
 H         6.440936       13.664289        7.793365
 H         1.351804       10.000894        7.854378
 H         1.771078        8.753688        8.664361
 H         1.799630        1.405402        4.081064
 H         1.796815        1.415986        2.534502
 H         5.632792        4.842114        0.265190
 H         4.282176        4.829606        1.035486
 H         7.378057        5.039077        3.232228
 H         6.034584        5.041027        2.449801
 H         5.633685        4.790504        4.622718
 H         4.325858        4.813475        5.494956
 H         3.540789        1.094046        5.557862
 H         2.610133       14.461267        5.554186
 H         2.193481        5.033034        4.792238
 H         2.226621        5.048556        6.338194
 H         5.672796        1.475736        1.890371
 H         5.216939        2.728086        1.098690
 H         5.674827        1.423301        6.404109
 H         5.233783        2.650337        5.578633
 H         0.440806        4.827805        7.792948
 H         1.753795        4.833031        8.599763
 H         0.412234        4.773495        3.356856
 H         1.306717        3.513230        3.333846
 H         2.159068        5.101388        1.891307
 H         2.586714        6.374737        1.125256
 H         3.533112        1.166463        1.055825
 H         2.195817        1.174431        0.280000
 H         6.506209       14.481954        3.303347
 H         6.069266        1.108619        4.129895
 H         6.056587        1.196094        8.644567
 H         7.393925        1.183023        7.866884
 H         6.101479        5.041975        6.552038
 H         7.591504        5.022096        7.414401
 H         1.787742        1.462429        6.987323
 H         1.347731        2.726184        7.763621
 H         8.199939        1.428694        3.305121
 H         9.536079        1.438453        2.525862
 H        13.438272        4.804002        0.304594
 H        12.986785        3.541744        1.071120
 H        13.796367        5.058545        4.117214
 H        13.810543        5.065168        2.570551
 H        12.039734        4.766138        5.560372
 H        12.941911        3.509701        5.574378
 H         9.950562        1.203369        4.787603
 H        11.291205        1.194082        5.560256
 H         9.906182        5.123568        4.720205
 H        10.373592        6.357250        5.540014
 H        13.442846        1.435160        1.853344
 H        13.452235        1.431605        0.308861
 H        13.448705        1.421443        4.791580
 H        13.448822        1.414817        6.338447
 H         8.991842        3.511444        7.689353
 H         9.486533        4.764028        6.882802
 H         9.535573        4.803095        2.497968
 H         9.088921        3.539383        3.273722
 H        10.422336        6.382561        1.096584
 H        11.321025        5.121033        1.097424
 H         9.951580        1.203398        0.286298
 H        11.290079        1.191107        1.061041
 H        15.188807        1.136431        3.318184
 H        14.277452       14.488532        3.319910
 H        14.299843       14.477454        7.810890
 H        15.191041        1.140886        7.800823
 H        13.800084        5.070992        7.030324
 H        13.808154        5.072614        8.573120
 H         9.553765        1.478621        8.600242
 H         9.558879        1.455856        7.050355
 H         0.428273        1.415279       12.287465
 H         1.760126        1.429614       11.502265
 H         4.177268        4.861273       10.200802
 H         5.560411        5.045504        9.589628
 H         6.000001        5.148053       11.718959
 H         6.506247        6.387282       12.480026
 H         5.654416        4.830009       15.437069
 H         5.659686        4.832613       13.898734
 H         2.204036        1.188448       13.749370
 H         3.541033        1.204212       14.534081
 H         2.634720        6.373786       14.581992
 H         3.527450        5.111515       14.607361
 H         5.192403        2.735577       10.127350
 H         5.665525        1.475200       10.878762
 H         5.672560        1.456956       15.360069
 H         5.218099        2.732282       14.621128
 H         1.786038        4.832980       16.027836
 H         1.779017        4.823473       17.573112
 H         1.323164        3.512929       12.370533
 H         1.762507        4.780207       13.146984
 H         2.060357        5.105461       10.895157
 H         2.497515        6.378661       10.135410
 H         3.514529        1.178865       10.035078
 H         2.187920        1.186856        9.240534
 H         7.412479        1.206512       12.339975
 H         6.075451        1.209077       13.116466
 H         7.421038        1.201437       16.821972
 H         6.084602        1.201270       17.604038
 H         6.552599        6.412701       16.822372
 H         7.444004        5.144840       16.823378
 H         1.801661        1.468508       15.992459
 H         1.340040        2.718184       16.775961
 H         9.605382        8.758957       13.153339
 H         9.570869        8.744069       11.608893
 H        12.037971       12.102606       10.085894
 H        12.942780       10.845157       10.075384
 H        13.767658       12.400128       13.085741
 H        13.786729       12.388737       11.540242
 H        12.941726       10.863167       14.556664
 H        12.026812       12.113250       14.549920
 H         9.984829        8.503189       15.399019
 H        11.331114        8.512426       14.631468
 H         9.888228       12.399801       13.786767
 H         9.899383       12.400118       15.333088
 H        13.484497        8.736405       10.859529
 H        13.485386        8.731079        9.310397
 H        13.468545        8.757720       15.350009
 H        13.448110        8.747169       13.802341
 H         9.511244       12.151340       17.596277
 H         8.174117       12.154561       16.823362
 H         8.141824       12.104818       12.326663
 H         9.051675       10.850356       12.350970
 H         9.898569       12.404867       10.884487
 H         9.886463       12.432143        9.340878
 H        11.362563        8.438680       10.130281
 H        10.426105        7.204940       10.117819
 H        14.278696        7.184088       12.329942
 H        15.166760        8.452182       12.377404
 H        13.801753        8.442945       17.613178
 H        14.254201        7.187597       16.831450
 H        13.771985       12.402008       16.007521
 H        13.777974       12.386941       17.553253
 H         9.070663       10.045595       16.818027
 H         8.186229        8.778837       16.818171
 H         1.751920        8.785138       13.201086
 H         1.292238       10.044152       12.422221
 H         4.254800       12.147739       10.053033
 H         5.588666       12.122695        9.271718
 H         6.477307       13.701851       12.292341
 H         6.010866       12.445934       11.522510
 H         5.676569       12.188034       15.335198
 H         5.656926       12.171857       13.787073
 H         3.509416        8.504507       14.642536
 H         2.168925        8.477087       15.408866
 H         3.520075       12.440084       14.573546
 H         2.638338       13.705988       14.573071
 H         5.591652        8.663202        9.805652
 H         5.150108       10.063628       10.281404
 H         5.176212       10.085015       14.630655
 H         5.669559        8.799856       13.929849
 H         1.742326       12.151464       16.007328
 H         0.392195       12.146330       16.764986
 H         1.744171       12.167692       13.129712
 H         0.399948       12.151124       12.361811
 H         2.121223       12.420530       10.873420
 H         2.562405       13.679208       10.088647
 H         3.393784        8.481708       10.258098
 H         2.035513        8.482981       10.960193
 H         7.444592        8.486371       12.490589
 H         6.045641        8.521361       11.845408
 H         6.036845        8.488750       17.582890
 H         6.043200        8.516231       16.049910
 H         6.026089       12.436234       17.578899
 H         6.497850       13.707541       16.831810
 H         0.385555        8.773246       16.829155
 H         1.274788       10.040515       16.820192
