384
 generated by VMD
 O         9.045769        1.752225       12.267700
 O        12.935612        4.513837       10.053725
 O        14.266792        5.385837       12.290510
 O        12.918633        4.485453       14.520180
 O        10.338915        0.884696       14.520654
 O        10.311112        5.323548       14.518927
 O        12.953048        1.784371       10.068149
 O        12.992421        1.727374       14.532293
 O         9.091607        4.478888       16.811012
 O         9.019241        4.479676       12.260217
 O        10.350397        5.414203       10.044142
 O        10.365964        0.843856       10.039534
 O        14.333648        0.932342       12.285690
 O        14.330959        0.816251       16.946405
 O        14.268496        5.270307       16.782398
 O         9.098149        1.755059       16.820435
 O         9.086100        9.062099        3.303046
 O        12.996305       12.022482        0.935784
 O        14.208385       12.723911        3.238251
 O        12.981966       11.817523        5.503967
 O        10.412759        8.160041        5.528547
 O        10.394069       12.708118        5.558363
 O        12.974237        9.061003        1.044158
 O        13.004877        9.067307        5.538387
 O         9.073498       11.807401        7.785434
 O         9.113372       11.796821        3.321817
 O        10.418030       12.729995        1.109462
 O        10.392554        8.173530        1.053452
 O        14.274593        8.141123        3.296962
 O        14.267238        8.141146        7.795284
 O        14.264504       12.738520        7.744083
 O         9.101256        9.063702        7.759621
 O         1.321503        9.048319        3.332457
 O         5.222899       11.767602        1.127178
 O         6.531133       12.695241        3.347768
 O         5.207816       11.823888        5.587894
 O         2.617319        8.168482        5.584658
 O         2.593360       12.700238        5.577035
 O         5.196690        9.028281        1.128238
 O         5.205646        9.077364        5.592309
 O         1.308493       11.797563        7.817116
 O         1.282114       11.774173        3.340620
 O         2.651760       12.703789        1.171705
 O         2.621802        8.083635        1.137538
 O         6.502604        8.140409        3.364897
 O         6.519555        8.153604        7.811892
 O         6.496632       12.744891        7.821940
 O         1.311399        9.061885        7.822469
 O         1.315840        1.765032        3.367211
 O         5.190721        4.471828        1.112673
 O         6.460977        5.398033        3.365296
 O         5.171590        4.493451        5.604948
 O         2.611847        0.834981        5.602068
 O         2.593990        5.431708        5.604684
 O         5.230843        1.738787        1.132241
 O         5.189670        1.754356        5.594466
 O         1.270128        4.523904        7.823801
 O         1.318571        4.499438        3.363777
 O         2.616219        5.348512        1.115699
 O         2.659244        0.847175        1.156620
 O         6.518986        0.836500        3.365055
 O         6.513511        0.879754        7.838174
 O         6.479891        5.412620        7.837322
 O         1.332985        1.781723        7.843949
 O         9.093187        1.766872        3.353074
 O        12.972723        4.459666        1.094852
 O        14.262614        5.400210        3.327366
 O        12.941898        4.500491        5.557757
 O        10.419480        0.846849        5.556569
 O        10.368880        5.422651        5.538904
 O        13.026421        1.756830        1.114676
 O        13.002337        1.763948        5.590299
 O         9.077250        4.523537        7.787852
 O         9.053507        4.514157        3.322606
 O        10.406773        5.424971        1.095847
 O        10.396194        0.860427        1.105500
 O        14.274402        0.853691        3.360240
 O        14.277642        0.889276        7.834410
 O        14.216372        5.401901        7.805680
 O         9.099191        1.780874        7.780001
 O         1.384065        1.802417       12.340001
 O         5.155783        4.487390       10.058433
 O         6.435645        5.402713       12.302395
 O         5.209053        4.485910       14.571240
 O         2.638936        0.846422       14.595719
 O         2.613317        5.377727       14.584498
 O         5.201810        1.747457       10.084975
 O         5.215775        1.755662       14.605468
 O         1.335176        4.415332       16.807526
 O         1.337438        4.522050       12.320412
 O         2.576497        5.418658       10.060351
 O         2.617173        0.864054       10.080537
 O         6.468655        0.834645       12.334929
 O         6.514712        0.839620       16.844076
 O         6.496046        5.363876       16.827021
 O         1.313658        1.700818       16.890795
 O         9.074217        9.025743       12.252984
 O        12.999143       11.817619       10.017188
 O        14.371350       12.806127       12.165943
 O        13.065690       12.586459       14.479608
 O        10.286341        8.038443       14.532787
 O        10.227055       12.719882       14.533164
 O        12.973267        9.069441       10.035934
 O        12.967710        8.760761       14.646978
 O         9.044646       11.791178       16.810184
 O         9.039443       11.770100       12.243815
 O        10.376360       12.704232       10.034693
 O        10.386320        8.149060       10.008645
 O        14.275513        8.124516       12.267196
 O        14.355772        7.974096       16.849127
 O        14.113674       12.969999       16.895372
 O         9.039013        9.026711       16.768845
 O         1.345741        9.034747       12.302938
 O         5.185376       11.818905       10.031416
 O         6.460933       12.692847       12.286892
 O         5.222163       11.771648       14.556205
 O         2.639595        8.118336       14.544361
 O         2.658744       12.692201       14.566220
 O         5.203219        9.082282       10.027662
 O         5.219679        9.029875       14.541348
 O         1.456231       11.757340       16.805229
 O         1.361794       11.776004       12.305340
 O         2.603037       12.722286       10.050101
 O         2.628057        8.153809       10.046148
 O         6.479745        8.143328       12.270797
 O         6.454971        8.109018       16.813627
 O         6.467233       12.710284       16.825836
 O         1.391084        8.963268       16.808601
 H         9.515333        1.419896       11.495111
 H         9.527876        1.443956       13.041770
 H        13.405846        4.809244       10.840843
 H        12.947566        3.550760       10.072891
 H        13.790024        5.099993       13.076321
 H        14.257668        6.349118       12.295299
 H        12.911386        3.524597       14.516850
 H        11.997072        4.768184       14.516138
 H        11.266859        1.133598       14.526150
 H        10.306908       14.525414       14.534960
 H         9.849269        5.028243       13.726368
 H        10.276755        6.287181       14.509150
 H        13.401344        1.477846       10.862432
 H        12.054847        1.437924       10.091354
 H        13.467937        1.430140       15.305293
 H        13.490527        1.427684       13.761824
 H         9.573559        4.826323       17.568394
 H         9.542650        4.790489       16.018000
 H         8.996263        3.516742       12.253114
 H         8.105071        4.782329       12.269441
 H        11.255885        5.087229       10.077802
 H         9.903309        5.082195       10.829825
 H        10.351833       14.483356       10.012054
 H         9.922900        1.153238        9.242650
 H        15.244059        1.251161       12.293651
 H        14.387734       14.577314       12.204067
 H        15.248273        1.144060       16.947285
 H        13.874074        1.203593       17.715427
 H        14.297375        6.234252       16.797590
 H        13.790707        5.020055       15.984568
 H         9.095468        2.719508       16.810017
 H         9.538442        1.474625       16.012350
 H         8.184637        8.725100        3.342990
 H         9.538378        8.734813        4.087965
 H        12.056601       12.265159        1.009486
 H        13.422637       12.273361        1.772463
 H        14.235972       13.685593        3.307491
 H        13.760606       12.409433        4.033385
 H        13.426609       12.156113        6.288991
 H        12.070819       12.128153        5.547363
 H        11.329656        8.453647        5.529482
 H        10.425862        7.197043        5.535840
 H         9.928436       12.375485        4.783051
 H         9.915234       12.384195        6.328918
 H        12.050616        8.778132        1.030499
 H        12.966515       10.011283        0.954876
 H        13.457863        8.767243        4.743358
 H        13.009397       10.029601        5.515121
 H         8.171810       12.144925        7.816761
 H         9.515855       12.125647        8.579111
 H         9.086865       10.833285        3.311090
 H         8.197078       12.095332        3.328723
 H        10.380237       13.693040        1.129444
 H         9.962415       12.413715        1.899058
 H         9.907872        8.479809        0.278632
 H         9.917973        8.502323        1.824422
 H        13.816864        8.444341        2.507435
 H        14.254539        7.177914        3.281253
 H        14.236682        7.178503        7.778832
 H        13.818786        8.447631        7.000139
 H        14.292415       13.700255        7.774074
 H        15.177749       12.433134        7.768168
 H         9.098178       10.026518        7.749267
 H         9.566765        8.776345        6.967109
 H         1.762634        8.703142        2.547593
 H         0.420555        8.708137        3.309119
 H         4.310333       12.073119        1.157169
 H         5.192904       10.804358        1.125457
 H         6.054653       12.377486        4.122217
 H         6.061917       12.359591        2.576298
 H         5.639685       12.168933        6.377082
 H         4.300148       12.143478        5.604158
 H         2.185929        8.490675        4.786244
 H         3.520571        8.502680        5.571560
 H         2.129042       12.367995        6.353296
 H         2.120918       12.363741        4.809286
 H         4.297158        8.684975        1.156369
 H         5.640522        8.707979        1.921076
 H         5.222011       10.039922        5.614389
 H         5.665919        8.772908        6.381989
 H         1.316398       10.834485        7.842379
 H         1.763928       12.101711        8.609294
 H         0.368914       12.071786        3.307115
 H         1.266921       10.809686        3.332965
 H         2.218745       12.369072        0.382209
 H         2.157285       12.363775        1.926274
 H         2.192573        8.376284        0.325945
 H         2.611020        7.120516        1.119150
 H         6.047023        8.451597        4.154484
 H         6.477188        7.177966        3.388405
 H         7.438866        8.440424        7.792357
 H         6.525379        7.190538        7.824025
 H         6.495662       13.707848        7.846876
 H         6.032710       12.444888        8.611590
 H         0.410167        8.721979        7.799501
 H         1.749765        8.742028        7.026748
 H         1.330489        2.728707        3.352886
 H         1.794708        1.468390        2.586216
 H         5.220814        3.508863        1.103396
 H         5.659522        4.769504        0.324974
 H         5.992401        5.070801        2.590385
 H         5.990529        5.066166        4.137798
 H         5.148160        3.530445        5.601236
 H         4.257623        4.797083        5.609317
 H         2.149500        1.146109        4.816804
 H         2.586441       14.474286        5.574790
 H         2.122147        5.140973        6.392499
 H         2.597423        6.394876        5.619788
 H         5.705525        1.415486        1.906262
 H         5.701500        1.407756        0.358806
 H         5.631331        1.422655        4.806072
 H         4.290223        1.409680        5.575917
 H         0.347625        4.801668        7.818701
 H         1.272735        3.561034        7.827988
 H         1.778888        4.842291        4.137558
 H         1.795812        4.817426        2.589419
 H         2.178601        5.017092        0.325247
 H         3.523826        5.023626        1.088585
 H         2.679933       14.486733        1.167257
 H         3.577319        1.143259        1.149828
 H         6.547332       14.475948        3.360597
 H         7.432777        1.141206        3.370744
 H         7.417512        1.209993        7.797011
 H         6.064357        1.201179        7.049366
 H         6.006325        5.080286        8.607309
 H         6.009755        5.082057        7.064494
 H         1.802519        1.454976        8.619166
 H         1.794490        1.437903        7.072015
 H         9.577972        1.440795        4.119520
 H         9.560529        1.446545        2.575305
 H        13.402929        4.758703        0.285200
 H        12.074287        4.808217        1.080498
 H        15.169387        5.074764        3.322886
 H        13.838238        5.056592        2.534462
 H        13.389827        4.829615        4.771269
 H        12.037279        4.830520        5.524588
 H        10.429956       14.485763        5.559731
 H        11.337235        1.138067        5.570539
 H         9.887642        5.094637        4.771074
 H         9.899755        5.105100        6.317788
 H        13.005592        2.722893        1.135788
 H        13.459662        1.467342        1.927235
 H        13.456068        1.484915        6.393669
 H        12.986644        2.727225        5.597533
 H         9.514131        4.844350        8.584343
 H         8.168558        4.840504        7.824383
 H         9.042857        3.551454        3.328263
 H         8.134427        4.802524        3.332225
 H        10.393154        6.388078        1.105102
 H         9.926791        5.132246        1.877199
 H        11.300756        1.183651        1.082910
 H         9.962706        1.185353        0.307590
 H        13.843100        1.179546        4.159308
 H        15.181090        1.180612        3.382101
 H        15.183201        1.216179        7.865705
 H        13.834690        1.207767        8.627625
 H        13.743996        5.081260        8.581798
 H        13.745739        5.073941        7.032068
 H         9.108911        2.743884        7.762935
 H         9.564419        1.480347        6.992691
 H         1.824583        1.497275       13.139632
 H         1.393536        2.766552       12.359829
 H         4.238168        4.779281       10.054805
 H         5.146775        3.524551       10.072542
 H         5.977226        5.103616       11.509838
 H         6.442965        6.365515       12.271312
 H         5.624493        4.820429       13.768608
 H         4.301067        4.807363       14.563985
 H         2.203574        1.145154       15.398429
 H         3.542735        1.181235       14.628575
 H         2.163886        5.094198       13.780830
 H         2.614718        6.341000       14.566298
 H         5.662412        1.414881       10.862767
 H         5.683863        1.431684        9.313350
 H         5.228499        2.719337       14.613975
 H         5.679340        1.460864       15.396464
 H         0.422023        4.721753       16.776308
 H         1.768196        4.760767       16.018553
 H         1.758448        4.852355       11.518505
 H         0.425249        4.830823       12.301189
 H         2.595415        6.381683       10.035351
 H         2.110485        5.129313        9.268623
 H         3.529059        1.175239       10.095507
 H         2.198454        1.205725       10.877682
 H         7.372587        1.167135       12.338979
 H         6.046593        1.165112       13.134769
 H         7.433277        1.128528       16.836168
 H         6.520868       14.478188       16.832899
 H         7.405246        5.047156       16.804064
 H         6.067576        5.047067       16.024796
 H         1.804278        1.421200       17.673567
 H         1.337116        2.666314       16.875257
 H         9.554544        8.705703       11.481702
 H         9.527025        8.682049       13.029243
 H        13.001980       10.854302       10.001690
 H        13.430749       12.111532        9.208358
 H        15.252804       12.415018       12.191026
 H        13.907707       12.433452       11.406141
 H        13.553775       12.700318       13.640835
 H        13.699924       12.730953       16.050608
 H         9.857521        8.399057       15.317673
 H        11.213335        8.279618       14.597778
 H        11.145134       12.477120       14.554499
 H         9.831634       12.374382       15.343943
 H        13.411389        8.730323        9.248260
 H        12.068226        8.740460       10.007526
 H        12.882505        9.693132       14.810747
 H        13.467986        8.437449       15.410151
 H         9.504544       12.117182       17.588263
 H         8.143044       12.129295       16.853325
 H         9.057137       10.806925       12.266328
 H         9.459921       12.069032       13.055477
 H         9.939170       12.363945       10.822806
 H        11.282551       12.381711       10.054405
 H        10.360753        7.186201        9.997654
 H         9.930588        8.450402        9.215766
 H        13.810187        8.406787       13.057912
 H        13.791046        8.473860       11.511194
 H        13.895600        8.359066       17.601494
 H        15.246551        8.341918       16.846428
 H        13.613659       12.570547       17.713037
 H        14.210431       14.003302       16.945625
 H         8.121771        8.732792       16.790281
 H         9.025135        9.988736       16.768562
 H         0.439970        8.710479       12.280724
 H         1.777777        8.709838       11.505556
 H         4.278805       12.144005       10.052590
 H         5.612360       12.137312       10.834475
 H         6.488447       13.655273       12.306742
 H         7.374559       12.388187       12.263435
 H         5.673643       12.071656       13.759810
 H         5.233426       10.808434       14.534393
 H         3.544840        8.447754       14.518456
 H         2.197933        8.449430       13.755077
 H         3.575333       12.390491       14.554037
 H         2.680191       13.654843       14.569263
 H         5.207546       10.045353       10.006150
 H         5.674534        8.781580        9.243356
 H         5.690508        8.699848       13.768759
 H         5.672763        8.689316       15.320036
 H         1.883688       12.095525       16.004427
 H         0.554077       12.049663       16.761608
 H         1.360817       10.812350       12.326317
 H         1.812015       12.071422       13.102758
 H         2.587335       13.684877       10.079927
 H         2.167641       12.410892       10.850402
 H         3.531104        8.488760       10.020339
 H         2.185114        8.487757        9.258806
 H         6.040152        8.488942       11.486652
 H         7.389210        8.458863       12.237603
 H         6.004501        8.410553       17.609591
 H         6.458870        7.146662       16.843630
 H         6.000652       12.365398       17.595016
 H         6.017657       12.369986       16.045462
 H         1.411136        9.922418       16.789755
 H         1.832624        8.671403       16.001581
