384
 generated by VMD
 O         9.104272        1.743846       12.316987
 O        12.978406        4.527650       10.079782
 O        14.269699        5.439163       12.320501
 O        12.984910        4.509923       14.563686
 O        10.380338        0.851842       14.568094
 O        10.398376        5.412444       14.550268
 O        12.987484        1.783674       10.086828
 O        12.957421        1.767182       14.578840
 O         9.087711        4.482635       16.762024
 O         9.093113        4.479616       12.328377
 O        10.366693        5.383718       10.066528
 O        10.398224        0.856174       10.064642
 O        14.250004        0.855769       12.340947
 O        14.252478        0.845994       16.811562
 O        14.287638        5.419113       16.787498
 O         9.089553        1.746960       16.811253
 O         9.223620        8.951935        3.257157
 O        13.002782       11.817575        1.109748
 O        14.287847       12.743293        3.356665
 O        12.995869       11.808992        5.599079
 O        10.438198        8.106569        5.612561
 O        10.399415       12.698851        5.595673
 O        12.984266        9.072927        1.060985
 O        13.002279        9.065923        5.577074
 O         9.113873       11.787163        7.843396
 O         9.108633       11.768868        3.327864
 O        10.407697       12.689438        1.101465
 O        10.436786        8.104501        1.003352
 O        14.241032        8.129782        3.306142
 O        14.270852        8.173842        7.831059
 O        14.271436       12.711987        7.846663
 O         9.081834        9.044573        7.825487
 O         1.296582        9.069688        3.365627
 O         5.315186       11.769481        1.042866
 O         6.505022       12.658289        3.286600
 O         5.219032       11.850308        5.572922
 O         2.544795        8.169460        5.638233
 O         2.609074       12.725528        5.560605
 O         5.347773        9.296823        0.952910
 O         5.087499        9.102613        5.643519
 O         1.338278       11.849637        7.838532
 O         1.311762       11.799943        3.316728
 O         2.612268       12.706594        1.044669
 O         2.446226        8.148429        1.106872
 O         6.062518        8.328714        3.302493
 O         6.470661        8.170765        7.827207
 O         6.519380       12.699258        7.826556
 O         1.311222        9.106226        7.880372
 O         1.308637        1.745453        3.302882
 O         5.167451        4.440784        1.085638
 O         6.515437        5.290893        3.372364
 O         5.206571        4.474467        5.610698
 O         2.593729        0.863398        5.561838
 O         2.612269        5.427233        5.594955
 O         5.178168        1.701901        1.053574
 O         5.195650        1.733357        5.578146
 O         1.334401        4.520208        7.839411
 O         1.314011        4.481000        3.357915
 O         2.569413        5.367385        1.082031
 O         2.580987        0.825119        1.060395
 O         6.478420        0.830549        3.310263
 O         6.485385        0.841414        7.825521
 O         6.480201        5.420424        7.841680
 O         1.318570        1.781570        7.813833
 O         9.094831        1.700458        3.357657
 O        13.002741        4.473188        1.067601
 O        14.258036        5.387208        3.332677
 O        13.000850        4.479700        5.595348
 O        10.385006        0.831454        5.612176
 O        10.411200        5.367615        5.591219
 O        12.957511        1.740925        1.112975
 O        12.974624        1.743708        5.613080
 O         9.064751        4.499839        7.824093
 O         9.162326        4.431980        3.318886
 O        10.418033        5.364372        1.061162
 O        10.378743        0.820639        1.107116
 O        14.254882        0.871825        3.354781
 O        14.270931        0.846115        7.847094
 O        14.276298        5.431879        7.838053
 O         9.078299        1.762420        7.839186
 O         1.292953        1.773630       12.309190
 O         5.227789        4.498652       10.103903
 O         6.521239        5.411820       12.336197
 O         5.212870        4.471369       14.545885
 O         2.621590        0.852977       14.533405
 O         2.636880        5.419925       14.514289
 O         5.222110        1.754980       10.075559
 O         5.224580        1.732576       14.548444
 O         1.334386        4.504040       16.749371
 O         1.322314        4.509667       12.292322
 O         2.648002        5.414937       10.070519
 O         2.614393        0.897096       10.065484
 O         6.520285        0.840704       12.301741
 O         6.522874        0.821364       16.791143
 O         6.464168        5.417613       16.823067
 O         1.301747        1.764566       16.762890
 O         9.100584        9.062613       12.300742
 O        12.967121       11.784074       10.070280
 O        14.265428       12.721180       12.294484
 O        12.971743       11.823270       14.537993
 O        10.365096        8.163055       14.554745
 O        10.380151       12.722867       14.575800
 O        12.950978        9.045658       10.069651
 O        12.933246        9.086170       14.522822
 O         9.081436       11.796459       16.824459
 O         9.096001       11.800029       12.335139
 O        10.388084       12.722260       10.089189
 O        10.368839        8.120451       10.066729
 O        14.275167        8.193334       12.311482
 O        14.206435        8.149031       16.746429
 O        14.265635       12.712003       16.786112
 O         9.048614        9.031082       16.781105
 O         1.355483        9.075146       12.296200
 O         5.220796       11.813507       10.082104
 O         6.516049       12.706046       12.323594
 O         5.195681       11.811180       14.567458
 O         2.644487        8.157017       14.558715
 O         2.614241       12.714784       14.520628
 O         5.237710        9.073332       10.098857
 O         5.216027        9.080123       14.650058
 O         1.310147       11.775884       16.738777
 O         1.322196       11.815108       12.280897
 O         2.643573       12.754623       10.068051
 O         2.650431        8.155478       10.071935
 O         6.506426        8.153440       12.364852
 O         6.459352        8.361294       16.918514
 O         6.514679       12.722463       16.820860
 O         1.238020        9.035986       16.739420
 H         8.199115        1.414780       12.291781
 H         9.538962        1.425856       11.518600
 H        13.413638        4.859340        9.287024
 H        12.066746        4.836149       10.050409
 H        13.808331        5.145108       11.527549
 H        14.262545        6.401542       12.301379
 H        13.459516        4.837856       15.335611
 H        13.452768        4.841006       13.789776
 H        11.283929        1.186522       14.554569
 H         9.950588        1.171840       13.767504
 H        10.414024        6.375069       14.549202
 H        11.316299        5.119341       14.559308
 H        13.001670        2.746563       10.102016
 H        13.432092        1.484985       10.886963
 H        12.982677        2.730050       14.591075
 H        13.411610        1.466573       15.373454
 H         8.189882        4.823827       16.762077
 H         9.520947        4.825758       15.972418
 H         9.106994        3.516676       12.350088
 H         9.564006        4.784728       13.111106
 H         9.891382        5.054018        9.296345
 H         9.906090        5.051906       10.844325
 H        11.299633        1.194349       10.049073
 H         9.958718        1.187160        9.273954
 H        13.790885        1.144818       13.136700
 H        14.237081       14.494734       12.340659
 H        13.798658        1.134752       17.610699
 H        14.246796       14.484931       16.820999
 H        15.207476        5.134003       16.771698
 H        14.286071        6.382320       16.777752
 H         9.097547        2.709860       16.778046
 H         9.545431        1.444609       16.017969
 H         9.680818        8.655814        2.454667
 H         8.376479        8.530609        3.219470
 H        13.469819       12.139404        0.331560
 H        13.468950       12.156720        1.881081
 H        14.264101       13.706618        3.382131
 H        13.829361       12.433155        4.144887
 H        12.078491       12.102058        5.590816
 H        12.977935       10.846067        5.586749
 H        10.025034        8.388239        4.793100
 H        10.424738        7.142288        5.600381
 H         9.944433       12.398727        4.803538
 H        10.380966       13.662530        5.580168
 H        12.997848       10.035238        1.102326
 H        13.434569        8.754763        1.851222
 H        12.104437        8.717186        5.585874
 H        13.417830        8.727700        4.777015
 H         9.580644       12.123149        8.615752
 H         9.578256       12.121435        7.068715
 H         9.141837       10.810894        3.295072
 H         9.572927       12.081109        2.541809
 H        11.328335       12.404922        1.104316
 H        10.416663       13.653482        1.099991
 H        10.460554        7.140172        1.017114
 H        11.349986        8.415421        1.003723
 H        15.154799        8.429432        3.329177
 H        14.264317        7.166363        3.315046
 H        13.854158        8.499917        7.025987
 H        15.168892        8.521067        7.839650
 H        13.805435       12.383327        7.069915
 H        13.802743       12.367563        8.614593
 H         9.552465        8.741952        7.042657
 H         9.112722       10.007395        7.813278
 H         1.303442       10.033917        3.372373
 H         1.738432        8.777888        4.170592
 H         5.768224       12.160563        0.272964
 H         5.753477       12.104322        1.843681
 H         7.415228       12.342295        3.327073
 H         6.071160       12.362628        4.096138
 H         5.180200       10.891211        5.628521
 H         5.676755       12.146972        6.368245
 H         2.552137        7.205501        5.645739
 H         2.085832        8.459894        6.434810
 H         2.184511       12.386274        4.766174
 H         3.520772       12.417497        5.545350
 H         5.854178        8.905723        0.127021
 H         5.357567       10.329156        0.982233
 H         4.180053        8.775037        5.700558
 H         5.566197        8.755989        6.406150
 H         1.760732       12.166583        7.033788
 H         0.428613       12.167003        7.822659
 H         1.738583       12.119688        2.517231
 H         0.411780       12.147518        3.312510
 H         2.619833       13.672572        1.047812
 H         3.525427       12.424893        1.051065
 H         2.046844        8.478724        1.925806
 H         3.328378        8.497448        1.084570
 H         5.696047        8.635747        4.158730
 H         5.668430        8.933129        1.795206
 H         7.381145        8.484967        7.827902
 H         6.065773        8.502302        8.636261
 H         6.082626       12.374258        8.620863
 H         7.424197       12.369894        7.849790
 H         1.339603       10.068913        7.887369
 H         1.786381        8.801774        8.660921
 H         0.388311        1.460286        3.321605
 H         1.298050        2.708614        3.326159
 H         4.267663        4.784730        1.111589
 H         5.603634        4.743450        1.886369
 H         6.530162        6.238047        3.376207
 H         6.055635        5.021182        4.180831
 H         5.214792        3.511109        5.626985
 H         5.657814        4.775660        6.407121
 H         2.585698       14.502745        5.542566
 H         2.142421        1.157696        4.763140
 H         3.513975        5.091674        5.617024
 H         2.176415        5.090520        6.385939
 H         5.154812        2.665077        1.061505
 H         4.260202        1.409450        1.055378
 H         5.622869        1.411446        4.778040
 H         4.284599        1.421048        5.550743
 H         1.334535        3.557027        7.849698
 H         1.803123        4.807562        8.630335
 H         1.771345        4.800771        2.573457
 H         1.790181        4.822644        4.121803
 H         2.522420        6.325617        1.072662
 H         2.132959        5.066157        0.276166
 H         2.117690        1.159772        1.837071
 H         2.115131        1.165194        0.288538
 H         6.482882       14.472151        3.285285
 H         6.019881        1.122859        2.515194
 H         6.030642        1.127538        7.026157
 H         6.493534       14.480724        7.809649
 H         6.459686        6.382936        7.852962
 H         6.040560        5.122646        8.645270
 H         0.417515        1.441946        7.802578
 H         1.749001        1.453187        7.017218
 H         9.099712        2.664109        3.342530
 H         8.172538        1.425908        3.343414
 H        13.455438        4.803862        1.850859
 H        13.477690        4.816016        0.302880
 H        15.163360        5.059917        3.361034
 H        13.825024        5.060292        4.128743
 H        13.453112        4.793348        6.385441
 H        13.007246        3.517000        5.630922
 H         9.907683        1.167975        6.378109
 H         9.917395        1.152410        4.833471
 H        11.317578        5.040064        5.585297
 H         9.994782        5.036989        4.788830
 H        12.039344        1.449822        1.108384
 H        12.947930        2.704120        1.090691
 H        13.412296        1.406693        6.402533
 H        12.069166        1.416428        5.635484
 H         9.511555        4.814228        7.030979
 H         8.166842        4.846922        7.800316
 H         9.580728        4.768126        2.517989
 H         8.255290        4.746401        3.309222
 H        11.321157        5.029141        1.034710
 H         9.973138        5.041157        0.271106
 H         9.905978        1.134266        1.885859
 H         9.908113        1.158826        0.338012
 H        13.788917        1.197869        4.132241
 H        13.774141        1.191035        2.582902
 H        13.822388        1.155543        8.641140
 H        14.257957       14.485306        7.875762
 H        14.298655        6.394768        7.826606
 H        15.192152        5.134367        7.843521
 H         8.165201        1.457214        7.838347
 H         9.047556        2.725309        7.834076
 H         0.391463        1.435156       12.342677
 H         1.742354        1.444421       13.094377
 H         5.246169        3.535760       10.111782
 H         5.691140        4.794616       10.894911
 H         6.084661        5.064398       13.121443
 H         7.425726        5.079295       12.353951
 H         5.230140        3.508223       14.574139
 H         5.646215        4.782068       15.345897
 H         2.642914       14.492455       14.527838
 H         3.538022        1.148617       14.539173
 H         2.194712        5.094748       13.722389
 H         3.535729        5.075518       14.496374
 H         5.645605        1.424308        9.275761
 H         4.309502        1.448067       10.054317
 H         5.696908        1.400738       15.318937
 H         5.695992        1.411570       13.772042
 H         1.327898        3.540826       16.727278
 H         1.799044        4.798099       15.958694
 H         0.411917        4.823738       12.299942
 H         1.282692        3.547104       12.301832
 H         2.199788        5.088643       10.858199
 H         3.549864        5.077853       10.103725
 H         2.134274        1.218831       10.835695
 H         2.147333        1.222393        9.288568
 H         6.056815        1.139048       11.511315
 H         6.505637       14.479984       12.286302
 H         7.422541        1.167239       16.823921
 H         6.066300        1.146444       17.575649
 H         6.013403        5.088029       17.610205
 H         6.447958        6.369458       16.891087
 H         1.739431        1.427727       15.974044
 H         0.396857        1.434782       16.748295
 H         8.195539        8.735058       12.296659
 H         9.526469        8.719826       11.507048
 H        12.931958       10.821360       10.070641
 H        12.055712       12.095335       10.078092
 H        13.829576       12.381100       11.505534
 H        15.171382       12.395107       12.272486
 H        12.067669       12.154997       14.528095
 H        13.402923       12.153256       13.742335
 H        11.266566        8.503617       14.531509
 H         9.934138        8.479873       13.753501
 H        10.365143       13.686460       14.591918
 H         9.930346       12.422878       15.371527
 H        12.051723        8.700843       10.053856
 H        13.385797        8.726791        9.271363
 H        13.407135        8.787432       13.738722
 H        12.956751       10.049277       14.508842
 H         9.091123       10.834503       16.829756
 H         9.553146       12.082682       17.615404
 H         9.119966       10.837167       12.337535
 H         9.553529       12.095620       13.129285
 H        10.381291       13.685545       10.100039
 H         9.928812       12.429360       10.882756
 H        10.350589        7.157120       10.049651
 H         9.912004        8.422058        9.274189
 H        15.181472        8.515780       12.283558
 H        13.837234        8.509487       11.513743
 H        13.758204        8.490088       17.528341
 H        13.730148        8.482850       15.977982
 H        15.167148       12.376580       16.749994
 H        13.819752       12.391859       15.994472
 H         9.536943        8.686777       17.539093
 H         9.512348        8.715785       15.994977
 H         1.827446        8.732442       11.529194
 H         1.820045        8.748495       13.073087
 H         5.655796       12.144924       10.874750
 H         4.321143       12.157603       10.092875
 H         6.078437       12.381226       13.116359
 H         7.420044       12.372488       12.345754
 H         4.291573       12.146535       14.568412
 H         5.625171       12.153628       15.356467
 H         2.144286        8.437889       15.332341
 H         2.634852        7.193231       14.559053
 H         2.136978       12.375711       15.285377
 H         2.151491       12.391553       13.739457
 H         5.235780       10.036656       10.118403
 H         5.680691        8.777619       10.900309
 H         5.180879       10.042892       14.600388
 H         4.302465        8.768789       14.624096
 H         1.766932       12.070671       17.532003
 H         1.295765       10.812975       16.763859
 H         1.789316       12.126076       11.497885
 H         1.352555       10.852485       12.261244
 H         2.183702       12.461611        9.273808
 H         2.623484       13.717647       10.055311
 H         2.669289        7.192073       10.061844
 H         3.566520        8.452108       10.078588
 H         6.497301        7.189805       12.378849
 H         6.061372        8.447750       13.163746
 H         6.021467        8.621286       16.088892
 H         7.403106        8.588961       16.844042
 H         6.543889       13.688952       16.802742
 H         7.429726       12.414920       16.811291
 H         0.323473        8.727052       16.733189
 H         1.624932        8.708477       17.555309
