384
 generated by VMD
 O         9.150373        1.754834       12.306741
 O        13.000693        4.518726       10.045952
 O        14.272764        5.380348       12.322421
 O        12.961280        4.470410       14.533100
 O        10.387314        0.810213       14.559181
 O        10.393649        5.422895       14.537589
 O        13.124657        1.644017        9.882680
 O        12.958284        1.727029       14.485295
 O         9.098702        4.514256       16.777208
 O         9.095765        4.501519       12.301014
 O        10.373544        5.420487       10.066394
 O        10.517832        0.881585       10.049871
 O        14.256797        0.875531       12.225039
 O        14.249148        0.844648       16.738718
 O        14.268588        5.400296       16.769157
 O         9.089697        1.766655       16.774990
 O         9.027480        9.089985        3.278888
 O        12.909051       11.757777        1.058102
 O        14.258326       12.589676        3.253732
 O        12.980694       11.734608        5.546817
 O        10.294109        8.258977        5.561901
 O        10.375375       12.694320        5.563192
 O        12.942168        9.034309        1.084864
 O        12.926270        9.017956        5.578949
 O         9.088070       11.855810        7.833865
 O         9.078072       11.819478        3.318086
 O        10.346845       12.718822        1.057607
 O        10.360686        8.120758        1.081282
 O        14.263410        8.159350        3.335351
 O        14.266148        8.231475        7.842030
 O        14.362617       12.566981        7.852864
 O         9.058327        9.124827        7.851176
 O         1.334904        9.065169        3.341858
 O         5.203905       11.835479        1.095599
 O         6.487213       12.719006        3.348151
 O         5.199723       11.786733        5.589662
 O         2.585899        8.118851        5.595048
 O         2.607005       12.729819        5.597014
 O         5.173368        9.092961        1.082820
 O         5.176008        9.046034        5.587631
 O         1.393938       11.741948        7.859039
 O         1.346921       11.814617        3.334790
 O         2.617952       12.753179        1.086789
 O         2.595425        8.154535        1.077953
 O         6.442826        8.164285        3.314415
 O         6.488370        8.177794        7.828539
 O         6.477708       12.698250        7.837761
 O         1.341735        9.035090        7.840869
 O         1.376197        1.742327        3.328943
 O         5.206141        4.529912        1.052976
 O         6.471712        5.426133        3.311056
 O         5.197215        4.492853        5.564230
 O         2.568549        0.868176        5.691030
 O         2.623897        5.384660        5.553353
 O         5.204048        1.791061        1.047969
 O         5.144659        1.747378        5.610491
 O         1.384543        4.501680        7.816000
 O         1.329729        4.488485        3.305889
 O         2.614095        5.414556        1.054922
 O         2.640130        0.886369        1.057261
 O         6.402456        0.857602        3.340313
 O         6.403259        0.834353        7.860580
 O         6.446051        5.435208        7.814661
 O         1.238590        1.849372        7.804265
 O         8.997374        1.775530        3.303705
 O        12.992646        4.489681        1.095487
 O        14.275279        5.420263        3.350712
 O        12.900655        4.713279        5.671077
 O        10.169367        0.832834        5.611221
 O        10.240257        5.539430        5.573476
 O        12.971514        1.736887        1.069759
 O        13.439616        1.340992        5.536876
 O         9.022904        4.542746        7.852943
 O         9.050944        4.527086        3.311261
 O        10.388302        5.385648        1.082890
 O        10.347670        0.866561        1.088870
 O        14.411108        0.683954        3.151167
 O        14.451794        1.002889        7.874147
 O        14.325271        5.516406        7.875400
 O         8.985919        1.775978        7.940331
 O         1.301395        1.786515       12.319302
 O         5.205266        4.499191       10.066865
 O         6.515137        5.404099       12.312947
 O         5.207444        4.538387       14.559385
 O         2.613531        0.861009       14.560598
 O         2.628278        5.442834       14.536198
 O         5.162521        1.769279       10.125280
 O         5.201564        1.800973       14.542376
 O         1.324829        4.508106       16.752657
 O         1.333335        4.515431       12.310724
 O         2.623804        5.425709       10.070011
 O         2.613909        0.862729       10.089696
 O         6.530075        0.894833       12.323642
 O         6.505414        0.875251       16.766695
 O         6.524382        5.449571       16.778330
 O         1.303434        1.765100       16.782797
 O         9.062716        9.071595       12.340702
 O        12.971560       11.759732       10.104409
 O        14.284644       12.711387       12.303299
 O        12.959574       11.771222       14.539424
 O        10.380363        8.159893       14.549553
 O        10.368335       12.680149       14.537775
 O        12.938536        9.032287       10.088729
 O        12.976460        9.033342       14.531952
 O         9.050025       11.808012       16.774639
 O         9.070572       11.812164       12.288481
 O        10.389554       12.729456       10.071089
 O        10.350349        8.160095       10.089529
 O        14.272002        8.113240       12.306178
 O        14.244034        8.146762       16.788181
 O        14.228529       12.700968       16.796476
 O         9.077754        9.059801       16.789843
 O         1.311519        9.061421       12.333364
 O         5.210474       11.791449       10.095941
 O         6.491992       12.752136       12.309955
 O         5.210719       11.836917       14.545938
 O         2.619070        8.178832       14.573799
 O         2.614954       12.715470       14.584265
 O         5.207719        9.054004       10.084633
 O         5.200862        9.099051       14.555498
 O         1.294778       11.828698       16.813932
 O         1.336002       11.800756       12.344212
 O         2.619417       12.702570       10.111743
 O         2.619149        8.162850       10.099034
 O         6.484031        8.149084       12.328825
 O         6.486872        8.187146       16.797915
 O         6.473114       12.746292       16.789095
 O         1.293320        9.082337       16.795221
 H         9.638802        1.439918       11.540094
 H         9.604574        1.413188       13.084493
 H        13.011721        3.567921        9.950085
 H        13.457173        4.867082        9.270627
 H        13.789846        5.050367       13.088879
 H        13.814079        5.051942       11.542335
 H        12.924281        3.508171       14.523664
 H        12.051094        4.786503       14.537186
 H         9.928846        1.121481       15.347163
 H        10.362411       14.449373       14.577515
 H         9.930600        5.124133       13.747643
 H        10.380045        6.386153       14.520105
 H        12.193823        1.365454        9.886386
 H        13.511331        1.358979       10.725990
 H        12.055783        1.390818       14.525999
 H        13.404125        1.404919       15.276331
 H         9.573220        4.843924       16.006784
 H         9.573946        4.826205       17.555275
 H         9.554705        4.800848       11.507879
 H         9.128003        3.539246       12.289977
 H        11.276926        5.095004       10.025011
 H         9.927938        5.099387        9.273432
 H        10.462108       14.521918       10.031786
 H         9.997025        1.193766        9.299792
 H        15.157365        1.215814       12.276680
 H        13.800495        1.187965       13.015672
 H        14.265875       14.484375       16.761017
 H        15.164807        1.141759       16.759003
 H        15.175594        5.077824       16.738945
 H        13.825678        5.056848       15.986549
 H         9.536123        1.474126       17.577536
 H         9.105635        2.729630       16.787910
 H         9.477457        8.728900        2.507765
 H         8.124905        8.755334        3.260106
 H        12.881721       10.793961        1.057136
 H        11.997519       12.070593        1.061714
 H        13.761119       12.264662        2.493171
 H        13.794054       12.289079        4.041646
 H        12.962235       10.769849        5.567852
 H        13.450222       12.009650        6.335641
 H         9.822460        8.583794        4.788157
 H         9.840771        8.591427        6.343539
 H        11.275844       12.357998        5.546942
 H         9.944851       12.372631        4.762946
 H        13.376545        8.707711        0.289413
 H        12.042602        8.689260        1.071044
 H        12.010014        8.721671        5.546056
 H        13.365066        8.687690        4.788185
 H         8.180534       12.177443        7.813842
 H         9.516397       12.167083        7.029190
 H         9.071259       10.856897        3.276407
 H         9.518931       12.126278        2.518673
 H        10.340684       13.681769        1.051866
 H         9.882143       12.430880        0.264329
 H        10.357268        7.157357        1.062827
 H         9.908338        8.421163        0.285944
 H        13.827645        8.482861        2.540079
 H        15.163524        8.500002        3.321284
 H        13.776373        8.532187        8.616009
 H        13.770833        8.512897        7.065557
 H        15.282456       12.263734        7.856930
 H        14.401761       13.514640        7.868560
 H         9.521264        8.806453        8.632629
 H         9.083831       10.087568        7.879332
 H         1.365364       10.027287        3.323476
 H         1.780803        8.760851        2.544169
 H         5.659530       12.117855        1.896101
 H         5.203314       10.872099        1.105004
 H         7.398271       12.406058        3.361492
 H         6.062580       12.381310        4.143341
 H         5.162874       10.823964        5.583782
 H         4.289728       12.098611        5.580709
 H         2.146911        8.432083        4.796693
 H         2.585085        7.156458        5.553664
 H         2.138599       12.405285        4.819913
 H         2.166609       12.359973        6.368426
 H         5.603523        8.755175        1.876516
 H         4.270955        8.757060        1.096839
 H         5.618606        8.732039        6.383969
 H         4.276123        8.705590        5.613640
 H         1.410691       10.776651        7.871804
 H         1.840603       12.045957        8.656651
 H         1.784428       12.160280        2.549313
 H         0.425700       12.089765        3.280529
 H         2.652751       13.715951        1.074892
 H         3.530608       12.444763        1.088372
 H         2.592845        7.191749        1.051652
 H         2.131300        8.456174        0.290053
 H         6.443008        7.200935        3.335841
 H         6.002124        8.457258        4.118889
 H         7.389455        8.518453        7.848015
 H         6.057123        8.497622        8.628018
 H         6.013716       12.359741        7.064760
 H         6.022388       12.350973        8.611718
 H         0.421397        8.750146        7.818529
 H         1.761523        8.691144        7.043720
 H         0.499896        1.347739        3.268530
 H         1.769751        1.424211        4.145389
 H         5.668622        4.856469        1.832595
 H         5.680387        4.869178        0.286179
 H         6.044269        5.081899        4.101889
 H         7.380162        5.103125        3.328905
 H         5.204485        3.531018        5.605933
 H         5.646527        4.809827        6.355948
 H         2.595344       14.506349        5.667929
 H         3.487211        1.166476        5.662722
 H         2.184921        5.055137        4.761477
 H         3.533361        5.064458        5.525358
 H         5.672555        1.491158        0.261389
 H         5.223993        2.754194        1.031001
 H         5.620918        1.414828        6.379782
 H         5.604801        1.422896        4.828465
 H         1.849539        4.843042        8.589435
 H         1.843082        4.830806        7.032744
 H         0.416441        4.794432        3.327802
 H         1.300880        3.526802        3.308621
 H         2.180966        5.076177        1.845142
 H         3.522504        5.093993        1.073600
 H         2.231345        1.199597        1.870253
 H         3.544458        1.221320        1.057483
 H         6.416085       14.497256        3.314282
 H         5.968468        1.156602        2.534983
 H         6.414336       14.473575        7.879863
 H         5.951466        1.128025        8.657638
 H         7.361609        5.131040        7.827919
 H         6.479776        6.397801        7.818278
 H         1.726100        1.508690        7.033691
 H         1.308686        2.822021        7.792563
 H         8.087703        1.460459        3.318203
 H         9.405828        1.442153        4.108258
 H        13.457897        4.827934        1.867197
 H        13.455988        4.821389        0.319896
 H        14.265931        6.383789        3.356362
 H        13.799935        5.142799        4.138292
 H        12.644930        3.812325        5.853089
 H        13.390344        4.995552        6.454347
 H        10.309073       14.479028        5.605023
 H        11.024014        1.235704        5.724247
 H        11.169791        5.303892        5.609427
 H        10.221514        6.503349        5.569379
 H        12.993225        2.699807        1.076440
 H        13.403498        1.458157        0.255886
 H        14.016973        1.172684        7.009955
 H        13.821305        1.099194        4.670659
 H         9.466463        4.839828        7.051742
 H         9.045089        3.580001        7.844967
 H         9.486073        4.841805        4.111488
 H         9.051481        3.564788        3.348443
 H        11.292957        5.058464        1.117172
 H         9.942871        5.063919        1.875065
 H        11.253488        1.188990        1.120528
 H         9.902052        1.191527        1.879012
 H        13.888809        1.040928        2.422773
 H        14.347959       14.323393        3.117753
 H        13.883386        1.293358        8.678802
 H        15.407398        1.390648        7.861053
 H        14.348154        6.480751        7.874327
 H        15.233721        5.207107        7.842807
 H         9.386727        1.441851        7.133723
 H         8.080405        1.448831        7.932540
 H         1.776383        1.485516       11.538970
 H         1.330030        2.750376       12.305478
 H         4.303452        4.836241       10.060936
 H         5.629833        4.835495        9.269239
 H         7.419513        5.072163       12.286045
 H         6.076719        5.076545       11.521004
 H         5.683888        4.867466       15.329617
 H         5.684298        4.850828       13.782761
 H         2.136451        1.187168       13.791580
 H         2.143220        1.188855       15.335562
 H         2.649558        6.405894       14.550440
 H         3.545099        5.146040       14.542300
 H         5.650850        1.481717       10.905034
 H         5.194105        2.732886       10.117856
 H         5.168085        2.763722       14.553794
 H         4.290502        1.489723       14.545654
 H         1.788388        4.836740       17.530336
 H         1.800681        4.843871       15.985274
 H         1.773446        4.855583       13.097740
 H         0.423398        4.831867       12.338666
 H         2.159953        5.120208       10.857411
 H         2.611580        6.388771       10.102857
 H         2.193834        1.209477        9.304398
 H         3.522903        1.192142       10.089497
 H         6.100226        1.234073       13.115984
 H         7.441120        1.205761       12.335189
 H         7.413275        1.197794       16.746744
 H         6.069849        1.207808       15.974821
 H         6.541612        6.412596       16.784241
 H         7.439957        5.149545       16.779762
 H         1.316951        2.728214       16.791332
 H         1.771563        1.476961       17.574259
 H         8.147411        8.771667       12.335526
 H         9.041396       10.034193       12.317538
 H        13.446011       12.099339       10.871506
 H        13.465952       12.040916        9.330813
 H        14.301826       13.672747       12.289065
 H        15.201258       12.415520       12.326583
 H        12.982841       10.808275       14.511404
 H        13.423703       12.083551       13.757207
 H         9.902116        8.499435       13.784651
 H         9.914769        8.483653       15.328172
 H         9.936449       12.362048       13.737527
 H        11.270566       12.344146       14.521936
 H        12.020700        8.737195       10.091269
 H        12.919630        9.994851       10.112965
 H        12.066707        8.716619       14.513795
 H        13.408637        8.690974       13.741869
 H         9.487262       12.119312       15.975125
 H         8.148568       12.146312       16.753849
 H         8.173004       12.160472       12.278264
 H         9.508845       12.143327       11.496971
 H         9.954030       12.419060        9.269166
 H        11.284621       12.378037       10.055717
 H        10.343175        7.196642       10.094728
 H         9.892432        8.447650       10.885909
 H        13.804508        8.409255       11.517742
 H        14.263325        7.149863       12.289484
 H        14.248035        7.183924       16.763189
 H        13.795438        8.439964       15.987504
 H        13.746792       12.363356       17.559372
 H        13.776371       12.364838       16.015694
 H         9.057250       10.022520       16.794123
 H         8.158852        8.770065       16.791180
 H         0.412007        8.717122       12.348041
 H         1.751095        8.733671       13.125669
 H         4.308411       12.125383       10.121903
 H         5.652239       12.137718       10.879419
 H         6.041183       12.454469       13.107973
 H         6.494066       13.714705       12.335114
 H         5.639254       12.161899       15.345841
 H         4.300653       12.150730       14.576290
 H         3.519644        8.520646       14.588749
 H         2.178751        8.507330       15.365014
 H         2.600307       13.678370       14.592046
 H         2.146507       12.425039       15.374641
 H         4.290263        8.761194       10.089676
 H         5.189889       10.016963       10.095430
 H         5.225846       10.061316       14.523154
 H         5.652256        8.779952       13.766496
 H         1.732681       12.162877       17.604136
 H         0.387147       12.150114       16.834515
 H         1.789048       12.092339       13.143209
 H         1.334935       10.837153       12.359431
 H         2.164576       12.406212       10.908654
 H         2.601330       13.663496       10.119390
 H         2.146561        8.475338        9.320388
 H         2.143912        8.492037       10.869693
 H         6.490601        7.186178       12.309076
 H         6.032821        8.439103       11.528571
 H         6.010723        8.510419       17.570549
 H         6.020424        8.517745       16.022842
 H         6.470033       13.709557       16.805681
 H         6.028730       12.448704       17.590302
 H         0.379508        8.778025       16.791914
 H         1.267396       10.044810       16.808096
