384
 generated by VMD
 O         9.104897        1.768760       12.336634
 O        12.922808        4.487703       10.079869
 O        14.293642        5.422288       12.244960
 O        12.983828        4.483280       14.443811
 O        10.417768        0.860615       14.560494
 O        10.397225        5.435317       14.558243
 O        12.970373        1.746503       10.069844
 O        13.016739        1.742121       14.500682
 O         9.086510        4.527383       16.813354
 O         9.094025        4.501263       12.328998
 O        10.345791        5.387350       10.073629
 O        10.383312        0.859214       10.088533
 O        14.306690        0.825716       12.273157
 O        14.332746        0.799505       16.732847
 O        14.412992        5.399448       16.530212
 O         9.095495        1.772037       16.783213
 O         9.057240        9.056540        3.380180
 O        12.945182       11.785611        1.110477
 O        14.270447       12.707291        3.340394
 O        13.015402       11.782544        5.591592
 O        10.358130        8.148652        5.628215
 O        10.409946       12.681880        5.615777
 O        13.009683        8.998619        1.108694
 O        12.983178        9.061477        5.563150
 O         9.103992       11.786206        7.846888
 O         9.073707       11.790249        3.376803
 O        10.349840       12.673551        1.105134
 O        10.375213        8.193871        1.134690
 O        14.361390        8.057435        3.228757
 O        14.281864        8.158089        7.826100
 O        14.281156       12.688907        7.852910
 O         9.080842        9.050391        7.860535
 O         1.288818        9.066932        3.343880
 O         5.186131       11.853001        1.104559
 O         6.495254       12.705376        3.363020
 O         5.188613       11.782481        5.591424
 O         2.577864        8.173734        5.569564
 O         2.603683       12.709054        5.584587
 O         5.199993        9.113393        1.085911
 O         5.170665        9.044576        5.581405
 O         1.334173       11.807701        7.849330
 O         1.306077       11.781313        3.337210
 O         2.601269       12.772365        1.137136
 O         2.617684        8.179523        1.084005
 O         6.467621        8.156970        3.334412
 O         6.493248        8.127884        7.791169
 O         6.514123       12.687057        7.820748
 O         1.324099        9.079420        7.809124
 O         1.307434        1.888761        3.345190
 O         5.198679        4.499278        1.062213
 O         6.399286        5.419735        3.335481
 O         5.090133        4.506061        5.555144
 O         2.613237        0.862117        5.538199
 O         2.470467        5.441250        5.511664
 O         5.228932        1.771856        1.091398
 O         5.200100        1.757888        5.598663
 O         1.312598        4.526286        7.797557
 O         1.104650        4.581289        3.371696
 O         2.602342        5.415023        1.038551
 O         2.614602        0.928768        1.125840
 O         6.484364        0.835243        3.344087
 O         6.500793        0.829873        7.835501
 O         6.426443        5.391802        7.791367
 O         1.309650        1.774360        7.780113
 O         9.073640        1.730540        3.355658
 O        12.644876        4.502400        1.676275
 O        14.384400        5.591015        3.305107
 O        12.952228        4.517000        5.766658
 O        10.373810        0.828641        5.605840
 O        10.319007        5.411958        5.631023
 O        12.949405        1.642430        1.055919
 O        12.969662        1.726161        5.603999
 O         9.010257        4.485803        7.846714
 O         8.951483        4.460836        3.430285
 O        10.192496        5.441854        1.209424
 O        10.347748        0.813228        1.091199
 O        14.273789        0.847544        3.349727
 O        14.272943        0.820607        7.840853
 O        14.265226        5.432219        7.928076
 O         9.080798        1.745771        7.847391
 O         1.351582        1.763285       12.265000
 O         5.204045        4.478452       10.059229
 O         6.519976        5.420482       12.260974
 O         5.260575        4.516201       14.504244
 O         2.669770        0.830507       14.493080
 O         2.697160        5.445067       14.448192
 O         5.218843        1.742965       10.068045
 O         5.240508        1.778944       14.530371
 O         1.482359        4.473975       16.682083
 O         1.343655        4.500969       12.269318
 O         2.626239        5.390719       10.028828
 O         2.624024        0.864030       10.028141
 O         6.527609        0.847120       12.301625
 O         6.514343        0.872186       16.786552
 O         6.499397        5.437268       16.769743
 O         1.392199        1.739122       16.742889
 O         9.059202        9.077814       12.307527
 O        12.951693       11.773885       10.061312
 O        14.297357       12.684302       12.274666
 O        12.987790       11.790290       14.515621
 O        10.380634        8.183387       14.546450
 O        10.408502       12.718048       14.561844
 O        12.958750        9.033893       10.068383
 O        12.980179        9.055860       14.511208
 O         9.079435       11.815633       16.782719
 O         9.084251       11.820759       12.329841
 O        10.380971       12.719998       10.091106
 O        10.377240        8.130831       10.088060
 O        14.290832        8.156063       12.279727
 O        14.292150        8.169513       16.758181
 O        14.254768       12.660728       16.792442
 O         9.091498        9.079759       16.802212
 O         1.337632        9.053444       12.299299
 O         5.225104       11.796611       10.066074
 O         6.492634       12.707126       12.320306
 O         5.200972       11.811563       14.565894
 O         2.645958        8.184138       14.538868
 O         2.618475       12.704061       14.558804
 O         5.171268        9.054794       10.012349
 O         5.239520        9.080135       14.537908
 O         1.330736       11.844230       16.820395
 O         1.358997       11.791636       12.292658
 O         2.651076       12.733514       10.072287
 O         2.585238        8.132313       10.035270
 O         6.480682        8.163799       12.254500
 O         6.501009        8.177742       16.806007
 O         6.492250       12.740353       16.813303
 O         1.345934        9.106910       16.768103
 H         9.545967        1.432037       13.124374
 H         8.202637        1.431617       12.352262
 H        12.920621        3.524046       10.076284
 H        12.001453        4.771395       10.076160
 H        13.810402        5.125017       11.466787
 H        14.277661        6.385570       12.238400
 H        13.004944        3.519437       14.439812
 H        13.440171        4.781616       13.648414
 H        10.438013       14.499691       14.566489
 H        11.335394        1.153624       14.541302
 H        11.309579        5.131222       14.526376
 H        10.421163        6.397917       14.552180
 H        12.065223        1.415954       10.055423
 H        13.403560        1.417035        9.275489
 H        13.482090        1.401838       13.728449
 H        13.491838        1.417403       15.272670
 H         8.180901        4.852583       16.762548
 H         9.543831        4.860349       16.034269
 H         9.107705        3.538277       12.362785
 H         9.551064        4.815295       13.116662
 H         9.889460        5.064055       10.858922
 H         9.854308        5.065526        9.310885
 H         9.907547        1.186492        9.317695
 H         9.922566        1.193824       10.865718
 H        14.296197       14.464940       12.250582
 H        13.833078        1.126267       11.490081
 H        14.303218       14.438985       16.761822
 H        13.863328        1.101414       17.514275
 H        13.894289        5.062158       15.781699
 H        14.075628        4.955149       17.297674
 H         9.570299        1.480306       15.997329
 H         9.109733        2.734527       16.776205
 H         8.152471        8.725240        3.383667
 H         9.483858        8.720942        4.174832
 H        12.940264       10.825192        1.114845
 H        12.024112       12.069658        1.110107
 H        14.270844       13.670564        3.323640
 H        13.798342       12.414330        2.553782
 H        13.482191       12.108333        6.369077
 H        13.474637       12.130453        4.819231
 H        11.258915        8.482433        5.627226
 H         9.935764        8.482601        6.428790
 H        10.420657       13.644925        5.609472
 H        11.328072       12.393772        5.602839
 H        13.421824        8.697125        0.290560
 H        12.094858        8.693643        1.095078
 H        13.008160       10.027087        5.544808
 H        13.431686        8.759541        4.775764
 H         9.558302       12.130798        8.623302
 H         9.586675       12.107606        7.077551
 H         9.076294       10.827367        3.402806
 H         9.548429       12.088416        4.159292
 H         9.875822       12.353497        1.879471
 H         9.879675       12.352034        0.327759
 H        10.299711        7.235820        1.163680
 H         9.919279        8.514013        1.920985
 H        15.251222        8.454357        3.248970
 H        13.894728        8.407264        2.449495
 H        15.184035        8.497243        7.802290
 H        13.844398        8.477798        7.031812
 H        13.803242       12.384944        8.632471
 H        14.266820       13.651958        7.874159
 H         9.536653        8.749793        8.654487
 H         9.090606       10.013797        7.881584
 H         1.754194        8.780305        4.139599
 H         1.304938       10.033205        3.345657
 H         5.664669       12.163815        1.880162
 H         5.661749       12.180034        0.332815
 H         6.051239       12.364930        4.146854
 H         7.400879       12.378389        3.393328
 H         4.276484       12.091243        5.591413
 H         5.154708       10.819954        5.589036
 H         2.154995        8.510423        6.368682
 H         3.492408        8.478686        5.591403
 H         2.131136       12.371916        4.816958
 H         2.138788       12.387870        6.364341
 H         4.286324        8.811177        1.087126
 H         5.175208       10.076634        1.092401
 H         5.655823        8.713296        6.345120
 H         5.633275        8.724207        4.799451
 H         1.780884       12.145842        8.633050
 H         0.426600       12.129599        7.884394
 H         1.752030       12.138776        2.560720
 H         0.403648       12.118768        3.315122
 H         2.623659       13.735127        1.142409
 H         3.517696       12.475656        1.123415
 H         2.153628        8.459010        1.877971
 H         2.602552        7.217630        1.077052
 H         6.026980        8.478453        2.540677
 H         6.435358        7.194687        3.300407
 H         7.408594        8.425074        7.819835
 H         6.505752        7.164885        7.794902
 H         6.073819       12.357163        7.030521
 H         7.419191       12.358435        7.799420
 H         1.768087        8.760112        8.603215
 H         1.342350       10.042643        7.848190
 H         1.771814        1.568160        2.562464
 H         1.777034        1.526509        4.105552
 H         5.190648        3.535146        1.069068
 H         4.280387        4.785163        1.060272
 H         5.993505        5.083930        2.528078
 H         7.295105        5.066976        3.360876
 H         5.530302        4.835577        4.763154
 H         4.186326        4.829440        5.520053
 H         2.619702       14.501492        5.544990
 H         3.533796        1.145219        5.560398
 H         2.058770        5.143950        6.332918
 H         2.508037        6.404232        5.553676
 H         5.685042        1.429940        1.867609
 H         5.697011        1.439053        0.318148
 H         5.662345        1.470747        6.392954
 H         5.179533        2.719913        5.611222
 H         1.775020        4.831863        8.586918
 H         0.407225        4.845647        7.870717
 H         1.151991        3.609857        3.361311
 H         1.605271        4.882325        4.150513
 H         2.173122        5.079111        0.241105
 H         2.084033        5.099836        1.776488
 H         2.198336        1.223754        0.308686
 H         3.526284        1.237283        1.096122
 H         6.034414        1.145556        4.136395
 H         6.468907       14.474352        3.375151
 H         7.416969        1.127535        7.838666
 H         6.523822       14.469181        7.826388
 H         5.936061        5.076013        7.025828
 H         5.973002        5.061069        8.574852
 H         1.321765        2.736428        7.760754
 H         1.770682        1.473452        6.990010
 H         8.170201        1.395542        3.336442
 H         9.504157        1.411006        2.555817
 H        13.781889        5.203957        2.643478
 H        11.744037        4.855305        1.525828
 H        15.322508        5.151178        3.295961
 H        14.401782        6.625869        3.238051
 H        13.429430        4.879377        5.030731
 H        13.414720        4.835644        6.556385
 H        11.277478        1.158746        5.578491
 H         9.938721        1.145504        4.807167
 H        10.350769        6.375395        5.627757
 H        11.229238        5.110742        5.679379
 H        12.917351        2.589641        1.107348
 H        12.028895        1.346574        1.055656
 H        13.427107        1.453514        4.800700
 H        12.982934        2.685343        5.623505
 H         8.100667        4.800123        7.807369
 H         9.452440        4.830082        7.063855
 H         9.006348        3.498109        3.427353
 H         9.434926        4.767774        4.203411
 H         9.672771        5.106545        1.949386
 H         9.797362        5.104245        0.396355
 H         9.902772        1.121891        0.294512
 H        10.326289       14.452291        1.072341
 H        13.832618        1.134786        2.544377
 H        15.165722        1.207662        3.316900
 H        15.173592        1.161381        7.809702
 H        13.834352        1.135846        7.044037
 H        14.253429        6.395823        7.930917
 H        13.791671        5.131797        8.713755
 H         9.538536        1.449164        7.053646
 H         9.068854        2.708445        7.819731
 H         0.439569        1.453933       12.276225
 H         1.320334        2.725908       12.280571
 H         5.225039        3.515537       10.085604
 H         5.675638        4.789843       10.840125
 H         6.090806        5.099422       13.062321
 H         7.427027        5.097484       12.293080
 H         5.677354        4.852386       15.304860
 H         4.360035        4.859838       14.496246
 H         2.232795        1.168649       13.704905
 H         3.570489        1.172214       14.483773
 H         2.279393        5.110115       15.249549
 H         2.667928        6.406458       14.501293
 H         5.655097        1.409678        9.276071
 H         4.308632        1.429404       10.036778
 H         5.255001        2.741921       14.507131
 H         5.701942        1.474341       13.741743
 H         1.436690        3.509927       16.700605
 H         0.576416        4.782343       16.599171
 H         0.442717        4.840430       12.284758
 H         1.789930        4.848496       13.049726
 H         2.189240        5.058181       10.821186
 H         3.531764        5.062440       10.056650
 H         2.151814        1.191701        9.256522
 H         2.156204        1.195445       10.803476
 H         6.502775       14.486385       12.291892
 H         6.064313        1.141608       11.510112
 H         7.418348        1.204587       16.760153
 H         6.078031        1.199485       15.992543
 H         6.486907        6.399754       16.807571
 H         6.038800        5.123499       17.554691
 H         0.487835        1.408976       16.732138
 H         1.821101        1.399510       15.950233
 H         8.154728        8.747766       12.269623
 H         9.507102        8.739889       11.525350
 H        12.920137       10.811539       10.060717
 H        12.040378       12.085773       10.078561
 H        15.202959       12.357635       12.251183
 H        13.852603       12.345718       11.490818
 H        12.996356       10.827477       14.489213
 H        13.455006       12.092296       13.729509
 H         9.899635        8.508428       13.778048
 H         9.916180        8.507816       15.324799
 H         9.962591       12.396294       13.771257
 H        11.310925       12.382839       14.526196
 H        13.435973        8.723606        9.292704
 H        13.447519        8.723226       10.839133
 H        13.415743        8.736536       15.308028
 H        12.070447        8.740561       14.542089
 H         9.555498       12.115139       16.000456
 H         9.089483       10.852718       16.760902
 H         8.168121       12.118833       12.331205
 H         9.057406       10.858037       12.320659
 H        10.373873       13.682995       10.110321
 H         9.917106       12.425190       10.882521
 H        10.386639        7.167833       10.083980
 H        11.296510        8.418137       10.085286
 H        15.195308        8.487726       12.311873
 H        13.847193        8.476175       13.072648
 H        15.200190        8.493355       16.760708
 H        14.348581        7.212387       16.699627
 H        13.792995       12.337506       16.011398
 H        13.769425       12.344023       17.560390
 H         8.187435        8.747876       16.828074
 H         9.526639        8.763298       17.599777
 H         1.360730       10.016684       12.306315
 H         1.804717        8.763047       13.090682
 H         5.212729       10.834313       10.030588
 H         5.686471       12.093462        9.274136
 H         6.032151       12.367855       11.545440
 H         6.015538       12.389434       13.094310
 H         4.291274       12.128956       14.590710
 H         5.634663       12.146973       15.357412
 H         3.551730        8.510983       14.561245
 H         2.209832        8.516810       15.330690
 H         2.155408       12.428782       15.357148
 H         2.623607       13.667622       14.556711
 H         5.608509        8.719654        9.222809
 H         4.266759        8.725476        9.995006
 H         5.247618       10.043387       14.520281
 H         5.678916        8.780205       13.735822
 H         0.414422       12.141054       16.837749
 H         1.753133       12.188606       17.613914
 H         1.837792       12.136729       11.531302
 H         1.808358       12.122255       13.077768
 H         3.566428       12.433780       10.063807
 H         2.668730       13.696674       10.059981
 H         2.147300        8.428429       10.840703
 H         2.586721        7.169192       10.055105
 H         6.478836        7.200739       12.239202
 H         6.014380        8.454770       11.463966
 H         6.046778        8.503098       16.021574
 H         6.024539        8.523575       17.568253
 H         6.523354       13.703321       16.800186
 H         7.404826       12.433541       16.795464
 H         1.787514        8.800910       17.566319
 H         1.354728       10.070094       16.801531
384
 generated by VMD
 O         9.104897        1.768760       12.336634
 O        12.922808        4.487703       10.079869
 O        14.293642        5.422288       12.244960
 O        12.983828        4.483280       14.443811
 O        10.417768        0.860615       14.560494
 O        10.397225        5.435317       14.558243
 O        12.970373        1.746503       10.069844
 O        13.016739        1.742121       14.500682
 O         9.086510        4.527383       16.813354
 O         9.094025        4.501263       12.328998
 O        10.345791        5.387350       10.073629
 O        10.383312        0.859214       10.088533
 O        14.306690        0.825716       12.273157
 O        14.332746        0.799505       16.732847
 O        14.412992        5.399448       16.530212
 O         9.095495        1.772037       16.783213
 O         9.057240        9.056540        3.380180
 O        12.945182       11.785611        1.110477
 O        14.270447       12.707291        3.340394
 O        13.015402       11.782544        5.591592
 O        10.358130        8.148652        5.628215
 O        10.409946       12.681880        5.615777
 O        13.009683        8.998619        1.108694
 O        12.983178        9.061477        5.563150
 O         9.103992       11.786206        7.846888
 O         9.073707       11.790249        3.376803
 O        10.349840       12.673551        1.105134
 O        10.375213        8.193871        1.134690
 O        14.361390        8.057435        3.228757
 O        14.281864        8.158089        7.826100
 O        14.281156       12.688907        7.852910
 O         9.080842        9.050391        7.860535
 O         1.288818        9.066932        3.343880
 O         5.186131       11.853001        1.104559
 O         6.495254       12.705376        3.363020
 O         5.188613       11.782481        5.591424
 O         2.577864        8.173734        5.569564
 O         2.603683       12.709054        5.584587
 O         5.199993        9.113393        1.085911
 O         5.170665        9.044576        5.581405
 O         1.334173       11.807701        7.849330
 O         1.306077       11.781313        3.337210
 O         2.601269       12.772365        1.137136
 O         2.617684        8.179523        1.084005
 O         6.467621        8.156970        3.334412
 O         6.493248        8.127884        7.791169
 O         6.514123       12.687057        7.820748
 O         1.324099        9.079420        7.809124
 O         1.307434        1.888761        3.345190
 O         5.198679        4.499278        1.062213
 O         6.399286        5.419735        3.335481
 O         5.090133        4.506061        5.555144
 O         2.613237        0.862117        5.538199
 O         2.470467        5.441250        5.511664
 O         5.228932        1.771856        1.091398
 O         5.200100        1.757888        5.598663
 O         1.312598        4.526286        7.797557
 O         1.104650        4.581289        3.371696
 O         2.602342        5.415023        1.038551
 O         2.614602        0.928768        1.125840
 O         6.484364        0.835243        3.344087
 O         6.500793        0.829873        7.835501
 O         6.426443        5.391802        7.791367
 O         1.309650        1.774360        7.780113
 O         9.073640        1.730540        3.355658
 O        12.644876        4.502400        1.676275
 O        14.384400        5.591015        3.305107
 O        12.952228        4.517000        5.766658
 O        10.373810        0.828641        5.605840
 O        10.319007        5.411958        5.631023
 O        12.949405        1.642430        1.055919
 O        12.969662        1.726161        5.603999
 O         9.010257        4.485803        7.846714
 O         8.951483        4.460836        3.430285
 O        10.192496        5.441854        1.209424
 O        10.347748        0.813228        1.091199
 O        14.273789        0.847544        3.349727
 O        14.272943        0.820607        7.840853
 O        14.265226        5.432219        7.928076
 O         9.080798        1.745771        7.847391
 O         1.351582        1.763285       12.265000
 O         5.204045        4.478452       10.059229
 O         6.519976        5.420482       12.260974
 O         5.260575        4.516201       14.504244
 O         2.669770        0.830507       14.493080
 O         2.697160        5.445067       14.448192
 O         5.218843        1.742965       10.068045
 O         5.240508        1.778944       14.530371
 O         1.482359        4.473975       16.682083
 O         1.343655        4.500969       12.269318
 O         2.626239        5.390719       10.028828
 O         2.624024        0.864030       10.028141
 O         6.527609        0.847120       12.301625
 O         6.514343        0.872186       16.786552
 O         6.499397        5.437268       16.769743
 O         1.392199        1.739122       16.742889
 O         9.059202        9.077814       12.307527
 O        12.951693       11.773885       10.061312
 O        14.297357       12.684302       12.274666
 O        12.987790       11.790290       14.515621
 O        10.380634        8.183387       14.546450
 O        10.408502       12.718048       14.561844
 O        12.958750        9.033893       10.068383
 O        12.980179        9.055860       14.511208
 O         9.079435       11.815633       16.782719
 O         9.084251       11.820759       12.329841
 O        10.380971       12.719998       10.091106
 O        10.377240        8.130831       10.088060
 O        14.290832        8.156063       12.279727
 O        14.292150        8.169513       16.758181
 O        14.254768       12.660728       16.792442
 O         9.091498        9.079759       16.802212
 O         1.337632        9.053444       12.299299
 O         5.225104       11.796611       10.066074
 O         6.492634       12.707126       12.320306
 O         5.200972       11.811563       14.565894
 O         2.645958        8.184138       14.538868
 O         2.618475       12.704061       14.558804
 O         5.171268        9.054794       10.012349
 O         5.239520        9.080135       14.537908
 O         1.330736       11.844230       16.820395
 O         1.358997       11.791636       12.292658
 O         2.651076       12.733514       10.072287
 O         2.585238        8.132313       10.035270
 O         6.480682        8.163799       12.254500
 O         6.501009        8.177742       16.806007
 O         6.492250       12.740353       16.813303
 O         1.345934        9.106910       16.768103
 H         9.545967        1.432037       13.124374
 H         8.202637        1.431617       12.352262
 H        12.920621        3.524046       10.076284
 H        12.001453        4.771395       10.076160
 H        13.810402        5.125017       11.466787
 H        14.277661        6.385570       12.238400
 H        13.004944        3.519437       14.439812
 H        13.440171        4.781616       13.648414
 H        10.438013       14.499691       14.566489
 H        11.335394        1.153624       14.541302
 H        11.309579        5.131222       14.526376
 H        10.421163        6.397917       14.552180
 H        12.065223        1.415954       10.055423
 H        13.403560        1.417035        9.275489
 H        13.482090        1.401838       13.728449
 H        13.491838        1.417403       15.272670
 H         8.180901        4.852583       16.762548
 H         9.543831        4.860349       16.034269
 H         9.107705        3.538277       12.362785
 H         9.551064        4.815295       13.116662
 H         9.889460        5.064055       10.858922
 H         9.854308        5.065526        9.310885
 H         9.907547        1.186492        9.317695
 H         9.922566        1.193824       10.865718
 H        14.296197       14.464940       12.250582
 H        13.833078        1.126267       11.490081
 H        14.303218       14.438985       16.761822
 H        13.863328        1.101414       17.514275
 H        13.894289        5.062158       15.781699
 H        14.075628        4.955149       17.297674
 H         9.570299        1.480306       15.997329
 H         9.109733        2.734527       16.776205
 H         8.152471        8.725240        3.383667
 H         9.483858        8.720942        4.174832
 H        12.940264       10.825192        1.114845
 H        12.024112       12.069658        1.110107
 H        14.270844       13.670564        3.323640
 H        13.798342       12.414330        2.553782
 H        13.482191       12.108333        6.369077
 H        13.474637       12.130453        4.819231
 H        11.258915        8.482433        5.627226
 H         9.935764        8.482601        6.428790
 H        10.420657       13.644925        5.609472
 H        11.328072       12.393772        5.602839
 H        13.421824        8.697125        0.290560
 H        12.094858        8.693643        1.095078
 H        13.008160       10.027087        5.544808
 H        13.431686        8.759541        4.775764
 H         9.558302       12.130798        8.623302
 H         9.586675       12.107606        7.077551
 H         9.076294       10.827367        3.402806
 H         9.548429       12.088416        4.159292
 H         9.875822       12.353497        1.879471
 H         9.879675       12.352034        0.327759
 H        10.299711        7.235820        1.163680
 H         9.919279        8.514013        1.920985
 H        15.251222        8.454357        3.248970
 H        13.894728        8.407264        2.449495
 H        15.184035        8.497243        7.802290
 H        13.844398        8.477798        7.031812
 H        13.803242       12.384944        8.632471
 H        14.266820       13.651958        7.874159
 H         9.536653        8.749793        8.654487
 H         9.090606       10.013797        7.881584
 H         1.754194        8.780305        4.139599
 H         1.304938       10.033205        3.345657
 H         5.664669       12.163815        1.880162
 H         5.661749       12.180034        0.332815
 H         6.051239       12.364930        4.146854
 H         7.400879       12.378389        3.393328
 H         4.276484       12.091243        5.591413
 H         5.154708       10.819954        5.589036
 H         2.154995        8.510423        6.368682
 H         3.492408        8.478686        5.591403
 H         2.131136       12.371916        4.816958
 H         2.138788       12.387870        6.364341
 H         4.286324        8.811177        1.087126
 H         5.175208       10.076634        1.092401
 H         5.655823        8.713296        6.345120
 H         5.633275        8.724207        4.799451
 H         1.780884       12.145842        8.633050
 H         0.426600       12.129599        7.884394
 H         1.752030       12.138776        2.560720
 H         0.403648       12.118768        3.315122
 H         2.623659       13.735127        1.142409
 H         3.517696       12.475656        1.123415
 H         2.153628        8.459010        1.877971
 H         2.602552        7.217630        1.077052
 H         6.026980        8.478453        2.540677
 H         6.435358        7.194687        3.300407
 H         7.408594        8.425074        7.819835
 H         6.505752        7.164885        7.794902
 H         6.073819       12.357163        7.030521
 H         7.419191       12.358435        7.799420
 H         1.768087        8.760112        8.603215
 H         1.342350       10.042643        7.848190
 H         1.771814        1.568160        2.562464
 H         1.777034        1.526509        4.105552
 H         5.190648        3.535146        1.069068
 H         4.280387        4.785163        1.060272
 H         5.993505        5.083930        2.528078
 H         7.295105        5.066976        3.360876
 H         5.530302        4.835577        4.763154
 H         4.186326        4.829440        5.520053
 H         2.619702       14.501492        5.544990
 H         3.533796        1.145219        5.560398
 H         2.058770        5.143950        6.332918
 H         2.508037        6.404232        5.553676
 H         5.685042        1.429940        1.867609
 H         5.697011        1.439053        0.318148
 H         5.662345        1.470747        6.392954
 H         5.179533        2.719913        5.611222
 H         1.775020        4.831863        8.586918
 H         0.407225        4.845647        7.870717
 H         1.151991        3.609857        3.361311
 H         1.605271        4.882325        4.150513
 H         2.173122        5.079111        0.241105
 H         2.084033        5.099836        1.776488
 H         2.198336        1.223754        0.308686
 H         3.526284        1.237283        1.096122
 H         6.034414        1.145556        4.136395
 H         6.468907       14.474352        3.375151
 H         7.416969        1.127535        7.838666
 H         6.523822       14.469181        7.826388
 H         5.936061        5.076013        7.025828
 H         5.973002        5.061069        8.574852
 H         1.321765        2.736428        7.760754
 H         1.770682        1.473452        6.990010
 H         8.170201        1.395542        3.336442
 H         9.504157        1.411006        2.555817
 H        13.781889        5.203957        2.643478
 H        11.744037        4.855305        1.525828
 H        15.322508        5.151178        3.295961
 H        14.401782        6.625869        3.238051
 H        13.429430        4.879377        5.030731
 H        13.414720        4.835644        6.556385
 H        11.277478        1.158746        5.578491
 H         9.938721        1.145504        4.807167
 H        10.350769        6.375395        5.627757
 H        11.229238        5.110742        5.679379
 H        12.917351        2.589641        1.107348
 H        12.028895        1.346574        1.055656
 H        13.427107        1.453514        4.800700
 H        12.982934        2.685343        5.623505
 H         8.100667        4.800123        7.807369
 H         9.452440        4.830082        7.063855
 H         9.006348        3.498109        3.427353
 H         9.434926        4.767774        4.203411
 H         9.672771        5.106545        1.949386
 H         9.797362        5.104245        0.396355
 H         9.902772        1.121891        0.294512
 H        10.326289       14.452291        1.072341
 H        13.832618        1.134786        2.544377
 H        15.165722        1.207662        3.316900
 H        15.173592        1.161381        7.809702
 H        13.834352        1.135846        7.044037
 H        14.253429        6.395823        7.930917
 H        13.791671        5.131797        8.713755
 H         9.538536        1.449164        7.053646
 H         9.068854        2.708445        7.819731
 H         0.439569        1.453933       12.276225
 H         1.320334        2.725908       12.280571
 H         5.225039        3.515537       10.085604
 H         5.675638        4.789843       10.840125
 H         6.090806        5.099422       13.062321
 H         7.427027        5.097484       12.293080
 H         5.677354        4.852386       15.304860
 H         4.360035        4.859838       14.496246
 H         2.232795        1.168649       13.704905
 H         3.570489        1.172214       14.483773
 H         2.279393        5.110115       15.249549
 H         2.667928        6.406458       14.501293
 H         5.655097        1.409678        9.276071
 H         4.308632        1.429404       10.036778
 H         5.255001        2.741921       14.507131
 H         5.701942        1.474341       13.741743
 H         1.436690        3.509927       16.700605
 H         0.576416        4.782343       16.599171
 H         0.442717        4.840430       12.284758
 H         1.789930        4.848496       13.049726
 H         2.189240        5.058181       10.821186
 H         3.531764        5.062440       10.056650
 H         2.151814        1.191701        9.256522
 H         2.156204        1.195445       10.803476
 H         6.502775       14.486385       12.291892
 H         6.064313        1.141608       11.510112
 H         7.418348        1.204587       16.760153
 H         6.078031        1.199485       15.992543
 H         6.486907        6.399754       16.807571
 H         6.038800        5.123499       17.554691
 H         0.487835        1.408976       16.732138
 H         1.821101        1.399510       15.950233
 H         8.154728        8.747766       12.269623
 H         9.507102        8.739889       11.525350
 H        12.920137       10.811539       10.060717
 H        12.040378       12.085773       10.078561
 H        15.202959       12.357635       12.251183
 H        13.852603       12.345718       11.490818
 H        12.996356       10.827477       14.489213
 H        13.455006       12.092296       13.729509
 H         9.899635        8.508428       13.778048
 H         9.916180        8.507816       15.324799
 H         9.962591       12.396294       13.771257
 H        11.310925       12.382839       14.526196
 H        13.435973        8.723606        9.292704
 H        13.447519        8.723226       10.839133
 H        13.415743        8.736536       15.308028
 H        12.070447        8.740561       14.542089
 H         9.555498       12.115139       16.000456
 H         9.089483       10.852718       16.760902
 H         8.168121       12.118833       12.331205
 H         9.057406       10.858037       12.320659
 H        10.373873       13.682995       10.110321
 H         9.917106       12.425190       10.882521
 H        10.386639        7.167833       10.083980
 H        11.296510        8.418137       10.085286
 H        15.195308        8.487726       12.311873
 H        13.847193        8.476175       13.072648
 H        15.200190        8.493355       16.760708
 H        14.348581        7.212387       16.699627
 H        13.792995       12.337506       16.011398
 H        13.769425       12.344023       17.560390
 H         8.187435        8.747876       16.828074
 H         9.526639        8.763298       17.599777
 H         1.360730       10.016684       12.306315
 H         1.804717        8.763047       13.090682
 H         5.212729       10.834313       10.030588
 H         5.686471       12.093462        9.274136
 H         6.032151       12.367855       11.545440
 H         6.015538       12.389434       13.094310
 H         4.291274       12.128956       14.590710
 H         5.634663       12.146973       15.357412
 H         3.551730        8.510983       14.561245
 H         2.209832        8.516810       15.330690
 H         2.155408       12.428782       15.357148
 H         2.623607       13.667622       14.556711
 H         5.608509        8.719654        9.222809
 H         4.266759        8.725476        9.995006
 H         5.247618       10.043387       14.520281
 H         5.678916        8.780205       13.735822
 H         0.414422       12.141054       16.837749
 H         1.753133       12.188606       17.613914
 H         1.837792       12.136729       11.531302
 H         1.808358       12.122255       13.077768
 H         3.566428       12.433780       10.063807
 H         2.668730       13.696674       10.059981
 H         2.147300        8.428429       10.840703
 H         2.586721        7.169192       10.055105
 H         6.478836        7.200739       12.239202
 H         6.014380        8.454770       11.463966
 H         6.046778        8.503098       16.021574
 H         6.024539        8.523575       17.568253
 H         6.523354       13.703321       16.800186
 H         7.404826       12.433541       16.795464
 H         1.787514        8.800910       17.566319
 H         1.354728       10.070094       16.801531
