383

O 9.09033886 1.78071961 12.29435611
O 12.98385761 4.53241291 10.02299899
O 14.27440576 5.40097899 12.26541943
O 12.97338827 4.45886172 14.49961213
O 10.33421851 0.86025003 14.57637446
O 10.40115552 5.41520037 14.54480384
O 12.99852177 1.77962831 10.07870081
O 12.95228217 1.72953769 14.57143605
O 9.09043873 4.54632256 16.80802108
O 9.08260495 4.52278850 12.31561257
O 10.38348902 5.43036362 10.06710372
O 10.41424858 0.87380307 10.07898695
O 14.26527995 0.86061002 12.33252371
O 14.23568591 0.89354776 16.80400827
O 14.27614573 5.39390248 16.73173593
O 9.09440074 1.78368674 16.83532731
O 9.09894878 9.04662817 3.35305436
O 13.55428537 11.52908592 1.11921968
O 14.44379882 12.91777559 3.29799254
O 12.96248424 11.87033577 5.57056509
O 10.39105128 8.19457384 5.59079074
O 10.37577909 12.72607100 5.60792965
O 12.98353951 8.98327095 1.10901747
O 13.01196576 9.07243173 5.58713096
O 9.09227430 11.82662496 7.81581699
O 8.99390012 11.81016146 3.46775668
O 9.77758640 12.88493428 1.21975914
O 10.40306336 8.18955098 1.10894903
O 14.25773685 8.12916103 3.35003641
O 14.27364416 8.16224236 7.82009126
O 14.28169534 12.72328910 7.85126060
O 9.06431261 9.09796705 7.83450869
O 1.28846341 9.11734611 3.33621111
O 5.20704991 11.81138589 1.08744618
O 6.44366280 12.70087950 3.38582586
O 5.21144684 11.78377057 5.61822003
O 2.57789629 8.13865561 5.54105695
O 2.62316503 12.72616374 5.63171752
O 5.20534076 9.08358037 1.11336452
O 5.17754241 9.03342445 5.58614183
O 1.33023364 11.77178663 7.87821994
O 1.32322012 11.84093093 3.34104721
O 2.62399560 12.68919224 1.10208563
O 2.60762330 8.17038539 1.12948062
O 6.49731431 8.14257944 3.34514028
O 6.46993280 8.14988103 7.84450617
O 6.50436252 12.71282688 7.82979069
O 1.33350720 9.02465024 7.81605842
O 1.21116312 1.75319736 3.20389908
O 5.15079047 4.50915230 1.08612279
O 6.44746817 5.40055457 3.33368470
O 5.17313874 4.49611763 5.59220714
O 2.57678639 0.87723848 5.60619181
O 2.57409875 5.39069328 5.54313415
O 5.17047010 1.75262291 1.10411758
O 5.21753042 1.77103396 5.57884557
O 1.32288788 4.48852137 7.82847211
O 1.29405610 4.41915484 3.26359407
O 2.56919914 5.41668386 1.08279338
O 2.59818659 0.85602677 1.11312997
O 6.50759628 0.85153499 3.34285012
O 6.48495163 0.85077865 7.85089006
O 6.50328119 5.40127287 7.84014559
O 1.31458929 1.76318301 7.84111438
O 9.11108096 1.83051299 3.35324285
O 12.98481645 4.52642549 1.08425949
O 14.27358159 5.39137216 3.31607552
O 12.98538666 4.56977833 5.57653248
O 10.33993457 0.85971645 5.59209263
O 10.37894973 5.46025990 5.58063339
O 13.08717518 1.66055784 1.13625559
O 12.96718515 1.78819311 5.72363633
O 9.10174432 4.51797271 7.81268602
O 9.07172016 4.55325362 3.34571555
O 10.37150484 5.45998753 1.09372590
O 10.47562440 0.97497629 1.06018475
O 14.42789112 0.85590032 3.11481344
O 14.27249285 0.86800993 7.85957634
O 14.27426675 5.42640391 7.79263717
O 9.06827870 1.77312480 7.87386229
O 1.31757916 1.76515971 12.30827064
O 5.23328858 4.47185525 10.09153704
O 6.48365560 5.41010849 12.35035023
O 5.18904067 4.49955170 14.58553259
O 2.64325612 0.84419963 14.54518256
O 2.59581738 5.38556412 14.56276213
O 5.19030084 1.73612976 10.10403147
O 5.23493618 1.76244918 14.56671788
O 1.32747113 4.47402119 16.78086463
O 1.32590333 4.50506606 12.30958257
O 2.64387670 5.40370374 10.07650475
O 2.60248821 0.85298595 10.07163992
O 6.51862700 0.83976541 12.32780770
O 6.50778893 0.87822119 16.81504255
O 6.49938392 5.41984886 16.80168653
O 1.34663383 1.75814776 16.81854053
O 9.09815555 9.03340075 12.30822790
O 12.95974284 11.78885165 10.08516682
O 14.28552073 12.71807105 12.28544997
O 12.93575120 11.79799269 14.50343897
O 10.40683008 8.15381461 14.55291955
O 10.36195211 12.72628546 14.49876308
O 12.98003057 9.04217912 10.06431720
O 12.98078725 9.07263752 14.56212116
O 9.01853768 11.75884548 16.70720108
O 9.06929971 11.77984218 12.26045886
O 10.39290091 12.72976105 10.06124772
O 10.38777235 8.16505709 10.04932616
O 14.25008203 8.14103122 12.32754478
O 14.28329313 8.12400826 16.75475052
O 14.35340439 12.76520552 16.67405803
O 9.09668271 9.05461970 16.77706522
O 1.30319963 9.05958393 12.30361974
O 5.22568296 11.82237736 10.07091775
O 6.51262874 12.71311398 12.31473942
O 5.17183614 11.79693998 14.50884112
O 2.61251187 8.11456534 14.53138732
O 2.60704321 12.70936844 14.55912516
O 5.18182750 9.08207880 10.08973480
O 5.17602579 9.04989039 14.55801825
O 1.33568068 11.80091655 16.77294976
O 1.33592724 11.79948494 12.32012062
O 2.64537205 12.71717441 10.10616578
O 2.60252139 8.14918148 10.05920674
O 6.49480339 8.15049170 12.31108572
O 6.47880452 8.15827070 16.81400694
O 6.45130500 12.73659562 16.75119145
O 1.33956080 9.04155622 16.80393878
H 9.09841339 2.74330907 12.27598992
H 9.56867076 1.48344239 11.51237537
H 12.07753990 4.85548911 10.01182600
H 13.41122011 4.85568829 9.22113352
H 13.82142889 5.12060129 11.46232295
H 14.24803325 6.36354812 12.27749857
H 13.43159816 4.74362993 13.70339498
H 12.97477913 3.49476674 14.50291807
H 9.87816219 1.21009795 13.80567088
H 9.87413665 1.19120161 15.35664623
H 10.43845924 6.37783257 14.55157511
H 11.31100247 5.09930915 14.53196427
H 13.00995301 2.74079548 10.03723980
H 13.45684970 1.46370274 9.28857844
H 13.38839885 1.43181490 15.38219997
H 12.04630227 1.40830478 14.60538572
H 9.56009744 4.87826134 17.58258633
H 9.57218188 4.85679111 16.03569073
H 9.52638951 4.84498789 13.10815228
H 8.17591470 4.84416214 12.35360969
H 10.36856384 6.39319452 10.08211096
H 9.92462208 5.13286364 10.85928687
H 9.96770609 1.19936065 9.28921575
H 11.31889957 1.20456291 10.04739408
H 13.78368897 1.16272667 13.11094176
H 13.79985439 1.19971796 11.56034701
H 13.82366720 1.17027543 17.64249899
H 15.14319609 1.20492588 16.83071622
H 13.84419680 5.04855012 15.94500260
H 15.17269557 5.04355225 16.73505887
H 9.60661529 1.50399658 17.60842316
H 9.10429516 2.74511101 16.84148273
H 8.19916205 8.70972501 3.31836744
H 9.54504781 8.74882014 2.55207340
H 13.77652751 12.00529522 0.32386292
H 13.91015402 12.65884645 4.04402384
H 13.82607872 12.06573472 1.86849966
H 13.43003586 12.15344560 6.35970486
H 13.00812935 10.91231950 5.56011069
H 9.91516938 8.52755646 6.35677387
H 9.92450328 8.51764825 4.81076538
H 9.92196107 12.39539228 4.82192423
H 11.28833435 12.41666252 5.55814025
H 13.43137950 8.66243404 0.32346099
H 13.15091594 9.94413168 1.12388489
H 13.43456655 8.73504578 4.78832271
H 12.10096958 8.76605730 5.56579451
H 9.57065457 12.14790198 7.03922888
H 9.56250435 12.15804824 8.58708974
H 9.33987124 12.17771510 2.63569707
H 9.05912986 10.85491053 3.40121198
H 9.62180096 12.51555329 0.35474942
H 10.10282888 13.77754410 1.11383620
H 9.97498584 8.52115468 0.31460930
H 11.31321691 8.51734771 1.09530348
H 14.27048432 7.16604743 3.33102248
H 13.80085491 8.41051232 2.54664430
H 14.26341405 7.19936112 7.78501180
H 13.82221811 8.47222666 7.02458889
H 15.18068184 12.38188098 7.87196672
H 13.83838461 12.38385216 8.63345134
H 9.04292335 10.06173289 7.82652512
H 8.15166901 8.79436349 7.83490553
H 1.25632259 10.08300633 3.34057610
H 0.37680819 8.80608200 3.33130114
H 4.29695993 12.13164970 1.07414620
H 5.63228362 12.14822664 0.29288907
H 7.34983903 12.36389119 3.39832093
H 6.04064969 12.38527596 2.57134592
H 5.63902632 12.09285356 4.80938192
H 5.20898845 10.82259992 5.58114572
H 2.12236803 8.46734756 4.75682195
H 2.55570148 7.17669806 5.50017610
H 3.52210823 12.38595712 5.65162023
H 2.18223122 12.38853615 6.41588491
H 5.67004140 8.78338939 1.90125822
H 5.22361180 10.04762216 1.12506286
H 5.59944708 8.70698141 6.38700867
H 4.27099296 8.70856070 5.59096352
H 1.34604204 10.80981790 7.87981471
H 1.79303545 12.06642198 8.66778586
H 0.43739157 12.24910590 3.34259862
H 1.76511658 12.16131119 4.13027257
H 2.14023735 12.36863538 0.33527520
H 2.14927169 12.37666049 1.88278088
H 3.51139007 8.49960611 1.15870151
H 2.15551644 8.52645898 1.90315258
H 6.03688325 8.43820892 4.13691649
H 6.46521729 7.18009218 3.35355909
H 6.47617344 7.18729258 7.86933666
H 6.01511777 8.44802898 8.63838166
H 7.41424886 12.39754820 7.79723022
H 6.06433895 12.37549924 7.04021636
H 0.42066007 8.71594385 7.79317827
H 1.75233882 8.70934760 7.00729694
H 0.24842331 1.38395364 3.17800636
H 1.61370977 1.42685112 4.00493654
H 4.24770501 4.84416590 1.05730793
H 5.59895220 4.83503031 0.29990117
H 5.97265204 5.07757079 2.56054556
H 5.98265856 5.06794652 4.10821741
H 5.64241644 4.79696296 6.37565794
H 5.20050063 3.53209594 5.60631455
H 3.48824039 1.17599733 5.57774664
H 2.60731653 14.51824753 5.60250841
H 3.48089607 5.07025113 5.57473495
H 2.14609550 5.06906708 6.34233018
H 4.25441131 1.44673761 1.11924652
H 5.13795789 2.71373793 1.10061757
H 5.68635363 1.43889858 4.80496433
H 5.67736800 1.43266591 6.35221211
H 1.32703301 3.52401516 7.84854605
H 1.78667832 4.78463403 8.61658631
H 1.74114211 4.69097995 4.06762445
H 1.26398225 3.44509362 3.26159079
H 2.11460924 5.08216444 1.86705587
H 2.55449805 6.37742052 1.13411275
H 2.08639081 1.16236894 1.88384479
H 2.58324829 14.49735233 1.13619203
H 6.04004300 1.14748592 2.55539669
H 6.48884353 14.49110058 3.32758291
H 6.01718076 1.13544850 8.64205775
H 6.48023464 14.48985106 7.85714362
H 6.08304532 5.05510718 8.63386543
H 7.41332652 5.08585419 7.84623032
H 1.74573129 1.44317878 7.03771850
H 0.40620778 1.43938406 7.81545862
H 8.22242879 1.46530825 3.34194219
H 9.53852717 1.47885867 4.14204049
H 13.40412815 4.83507630 0.27800528
H 12.07834398 4.84263401 1.06537271
H 15.16629804 5.02894403 3.29141225
H 13.82781875 5.07129939 2.52272391
H 13.41762944 4.85464736 4.76301614
H 12.08244772 4.89867568 5.54585948
H 9.89173358 1.14041903 6.39319452
H 10.35302534 14.49847697 5.60121526
H 9.91401022 5.16267604 4.79083247
H 10.36831018 6.42351188 5.56364891
H 13.09048104 2.61449604 1.16854047
H 13.61824253 1.33627755 1.93810680
H 12.06093056 1.48767749 5.64319068
H 12.95152095 2.74315984 5.64813142
H 9.56612992 4.85156071 7.03631869
H 9.57388794 4.84594253 8.58421624
H 9.07299316 3.58801962 3.35081088
H 8.14926990 4.82519557 3.33994750
H 9.91811176 5.15800856 1.88695857
H 10.37874605 6.42329233 1.12548181
H 11.41830399 1.19341408 1.11852958
H 10.06191990 1.28945715 1.86574193
H 13.98141828 1.15780306 3.89450957
H 14.41980332 13.92043793 3.23366685
H 14.26631719 14.50874778 7.82784679
H 13.79751660 1.17923902 7.07263512
H 15.17424734 5.08487405 7.78271074
H 13.84166232 5.10704192 6.98970090
H 8.15204027 1.47822823 7.87012322
H 9.05534815 2.73469650 7.83930695
H 0.40192513 1.46624051 12.32947948
H 1.29352155 2.72790733 12.31172014
H 5.67784142 4.77307494 10.89055377
H 5.23241544 3.50874697 10.11639791
H 6.02289826 5.11890895 13.14485433
H 6.46709251 6.37295836 12.35192295
H 5.65484284 4.80134295 15.37380087
H 5.21715053 3.53655382 14.59731190
H 3.54554531 1.17798669 14.52623128
H 2.20007757 1.18229310 13.76122149
H 3.50229368 5.06124129 14.58764066
H 2.16243906 5.05260117 15.35877358
H 4.28039299 1.41926308 10.12106420
H 5.62707054 1.39642274 10.89210793
H 5.69787765 1.44168697 15.34963705
H 5.71284577 1.42646349 13.80158195
H 1.75905182 4.79582813 17.58013450
H 1.34658347 3.50990429 16.82252382
H 1.74574147 4.82317507 13.11647312
H 0.42252291 4.83985414 12.31035725
H 3.54544075 5.06746359 10.09754462
H 2.20554365 5.07716994 10.86928524
H 2.12302580 1.18565653 10.83785760
H 2.13909775 1.17651948 9.28937666
H 6.55008096 14.47873500 12.33132607
H 7.43040662 1.15014340 12.30526487
H 7.41640293 1.19568456 16.86806011
H 6.05541804 1.18727763 17.60788188
H 6.51343535 6.38286467 16.80778096
H 7.41876689 5.13016345 16.80932429
H 1.81620699 1.42197004 16.05157816
H 1.79647801 1.41325135 17.60057894
H 9.57153013 8.70701802 11.53598000
H 9.57287875 8.71645750 13.08490679
H 13.43274376 12.08946136 10.86865300
H 12.97495958 10.82662988 10.10021510
H 14.30605292 13.68049520 12.29833081
H 15.20058262 12.41896378 12.30296987
H 13.37530836 12.12960215 13.71553128
H 12.03400109 12.13558940 14.48800025
H 11.30806297 8.49421905 14.58464831
H 9.96001626 8.47703159 15.34441953
H 9.90326309 12.43363245 13.70627771
H 10.33447147 13.68872700 14.50732084
H 13.45757210 8.72072330 9.29099758
H 13.44054150 8.70940293 10.84154697
H 13.44456089 8.77426068 15.35399361
H 12.97886494 10.03653988 14.57748503
H 9.47932459 12.10937242 15.94083504
H 8.12463077 12.11215794 16.68497538
H 9.53570726 12.08351703 11.47404368
H 9.10092085 10.81765026 12.25618073
H 10.42472130 13.69223714 10.06893133
H 11.30560380 12.42050470 10.06714982
H 11.29571418 8.48608017 10.02298719
H 9.94335511 8.50593134 9.26540163
H 13.81633945 8.47654537 13.12094333
H 15.15237233 8.47649831 12.34248008
H 14.30891085 7.16131979 16.73841898
H 15.19628588 8.42580508 16.78460597
H 14.28399954 13.72495120 16.71267380
H 13.83096343 12.46952771 15.92608711
H 9.05853313 10.01975750 16.76234732
H 8.18521226 8.75009278 16.79400814
H 1.75575965 8.76238774 11.50747899
H 1.32784612 10.02272222 12.29416462
H 5.69642497 12.14323478 9.29313630
H 5.69936793 12.14795711 10.84391759
H 6.06119016 12.37505460 13.09652017
H 7.40946677 12.36046641 12.32786837
H 5.14975217 10.83492657 14.53297654
H 4.25549706 12.09684270 14.51905460
H 2.14292338 8.42112786 13.74934750
H 2.58470873 7.15156667 14.51933011
H 2.15363725 12.40544811 15.35638235
H 2.60526120 13.67199314 14.58261505
H 4.26508301 8.78688438 10.08392054
H 5.16876050 10.04514331 10.08128032
H 5.62495416 8.72855147 13.77019429
H 4.27749927 8.70288369 14.52590802
H 1.29792499 10.84055327 16.79213169
H 0.42417385 12.12082794 16.74596143
H 1.79319352 12.12760551 13.10277405
H 1.81708487 12.13596260 11.55614291
H 2.64466973 13.68022335 10.08217165
H 3.56677449 12.43756630 10.09002333
H 2.15098026 8.42682534 9.25353848
H 2.61269063 7.18628991 10.05130353
H 6.05776039 8.49314055 11.52435749
H 7.40326562 8.46898828 12.29061956
H 6.00465811 8.48589347 16.04385670
H 6.01938182 8.49557140 17.59104134
H 6.46368745 13.69895148 16.74913994
H 5.98533273 12.45154659 15.96000003
H 1.80480428 8.72955247 17.58750161
H 1.81298952 8.70553065 16.03840496
