383

O 9.09566680 1.75242919 12.30873133
O 12.97931749 4.51010346 10.05236987
O 14.24423355 5.50996701 12.23506659
O 12.95348051 4.52099982 14.48769539
O 10.36459167 0.84412582 14.56202114
O 10.34988970 5.42727662 14.54360004
O 12.97090190 1.77710462 10.03595175
O 12.96189104 1.74584808 14.52908448
O 9.07293719 4.50080652 16.82432394
O 9.05945870 4.50371274 12.31990021
O 10.40286376 5.42814123 10.07169386
O 10.38581626 0.85081044 10.06694046
O 14.25672298 0.87433880 12.26148737
O 14.27527457 0.85896770 16.79349327
O 14.23867963 5.27893720 16.79558239
O 9.09153451 1.77040219 16.79576942
O 9.10219934 9.05995645 3.33139592
O 12.98696155 11.84322505 1.11074962
O 14.25937547 12.70868287 3.37931147
O 12.96090793 11.81097608 5.62027181
O 10.34902837 8.12995868 5.61035555
O 10.38595516 12.74399224 5.55391477
O 12.88590491 9.09609151 1.21336702
O 12.93097109 9.08976855 5.53059717
O 9.07517987 11.83057137 7.81151778
O 9.08958991 11.80246340 3.34093194
O 10.37937771 12.71457432 1.08518804
O 10.35797234 8.16211885 1.07998218
O 14.30947887 8.14101657 3.36093290
O 14.38857491 8.15938754 7.69730141
O 14.21683595 12.63929356 7.90321099
O 9.13600155 9.06958509 7.87925692
O 1.38837408 9.06979369 3.34897112
O 5.23697016 11.81848756 1.10264734
O 6.49252858 12.71856397 3.35823454
O 5.19398599 11.78594428 5.59176218
O 2.65813053 8.15568381 5.60933998
O 2.60761830 12.71788378 5.60780391
O 5.30041431 9.08301972 1.12762802
O 5.24124639 9.05869178 5.58451065
O 1.33990017 11.79659652 7.82319569
O 1.32811391 11.83138056 3.35489450
O 2.64886812 12.70584465 1.11957156
O 2.73984348 8.13855905 1.14261096
O 6.54571245 8.14049935 3.36378778
O 6.55356447 8.15997477 7.83976201
O 6.46146436 12.71887771 7.83390995
O 1.36308694 9.07159745 7.80245442
O 1.30991028 1.76542321 3.31492319
O 5.22802965 4.47047011 1.10216310
O 6.49306408 5.40431190 3.34291223
O 5.21567611 4.48483430 5.59523472
O 2.60728492 0.83950896 5.55207878
O 2.61670885 5.39285821 5.56549545
O 5.21544908 1.72291214 1.07960653
O 5.19388373 1.74088424 5.58997614
O 1.34093022 4.46645360 7.81898658
O 1.32589017 4.50597048 3.30057983
O 2.63553920 5.41695776 1.07070745
O 2.61279179 0.85073142 1.08683887
O 6.49852370 0.86384723 3.34102969
O 6.49577068 0.84130049 7.82906948
O 6.51730836 5.41530149 7.82439374
O 1.27602697 1.72167890 7.79294817
O 9.07897229 1.78683319 3.35423151
O 12.95159703 4.47592212 1.08702084
O 14.26934683 5.38931725 3.31454283
O 12.99138513 4.48243843 5.57623989
O 10.39284794 0.89171127 5.57794812
O 10.40474383 5.40006162 5.57836184
O 12.96598084 1.72622381 1.11423455
O 12.98521633 1.75004809 5.59876692
O 9.08642944 4.49163924 7.80539563
O 9.09218777 4.52039437 3.33477955
O 10.37888721 5.43347241 1.11216309
O 10.35299117 0.85189153 1.10775337
O 14.26453655 0.84031761 3.35948201
O 14.23202839 0.77590721 7.82748109
O 14.26304420 5.37173298 7.80105632
O 9.09951850 1.74866554 7.84042711
O 1.30868564 1.82718701 12.31509114
O 5.20605937 4.48267939 10.04857292
O 6.47703062 5.40462853 12.29390391
O 5.17265832 4.52844815 14.53698437
O 2.63034347 0.87149894 14.54604826
O 2.60077496 5.45824184 14.50654723
O 5.19024259 1.74150527 10.05453149
O 5.23758614 1.78258796 14.55577954
O 1.36338016 4.49058367 16.75503698
O 1.25404898 4.56462693 12.30172542
O 2.60681199 5.39503151 10.05916273
O 2.58391810 0.88559887 10.06434827
O 6.49700385 0.86077350 12.29704797
O 6.51548529 0.84362507 16.78335107
O 6.47183928 5.39909248 16.79194075
O 1.33275916 1.77323967 16.79173805
O 9.05738566 9.10735942 12.21350665
O 13.00599405 11.68533612 10.09725630
O 14.26282315 12.68638261 12.23487173
O 12.94120324 11.86306690 14.49527799
O 10.25241145 8.13002317 14.49621643
O 10.38167373 12.72122437 14.53699289
O 12.83687028 9.18816553 10.16154123
O 12.67052725 9.04824662 14.25370704
O 9.09618025 11.80980261 16.76120149
O 9.05870538 11.81377202 12.32099118
O 10.35625919 12.75360573 10.08639257
O 10.47901065 8.30779577 10.06947192
O 14.10438994 8.15442122 12.09659272
O 14.65050216 8.00486113 17.27261173
O 14.28596014 12.69813915 16.78703722
O 9.09276754 9.04315051 16.75204462
O 1.32281355 9.07956470 12.23965919
O 5.17311075 11.79236417 10.06573345
O 6.44123006 12.72457848 12.31215261
O 5.16862274 11.78236870 14.56327056
O 2.60568306 8.18279823 14.53452710
O 2.59625674 12.73902754 14.56132397
O 5.16017391 9.05667072 10.03331880
O 5.23320934 9.05304053 14.54743682
O 1.35626732 11.78730844 16.79811484
O 1.30286299 11.84607239 12.28564791
O 2.60689723 12.72443908 10.08222006
O 2.59905854 8.13952080 10.05708802
O 6.45772972 8.15345347 12.26848316
O 6.52574987 8.12891628 16.80332130
O 6.51320339 12.69565283 16.78889257
O 1.45437112 9.08147011 16.82763464
H 8.19075464 1.42648825 12.27714034
H 9.53699547 1.42931692 11.51520960
H 12.07653265 4.84767924 10.06891998
H 13.41759104 4.87293777 10.83318166
H 13.78930754 5.22316195 13.03033224
H 14.17891193 6.48236476 12.19657996
H 12.92351562 3.56090198 14.48028004
H 12.04202058 4.82893910 14.50960851
H 10.35881297 14.48155874 14.53358759
H 9.91898932 1.14386738 13.76248795
H 10.32031350 6.39472894 14.53650194
H 9.90895673 5.14264409 15.34746366
H 12.97830985 2.74153532 10.05523543
H 13.42679842 1.48440041 10.83321733
H 12.06121689 1.40755528 14.55506284
H 13.39836023 1.43210104 15.32658272
H 9.50768058 4.84092552 17.61302655
H 8.16689790 4.82456233 16.83701249
H 9.09383279 3.54271446 12.33738745
H 9.51886823 4.81320380 13.10903189
H 9.92174970 5.11337704 10.84074781
H 9.92517863 5.11356117 9.30145019
H 11.29926502 1.15561808 10.05954970
H 10.40963899 14.48652921 10.07435534
H 13.81798458 1.17569475 13.06337349
H 15.15822257 1.20693454 12.29985586
H 15.17294715 1.20567017 16.80818972
H 13.84158527 1.17295340 17.59255258
H 15.15257270 4.98988934 16.74272329
H 13.81107980 5.03094379 15.97017634
H 9.54870234 1.46605130 16.00324527
H 9.10820173 2.73386204 16.77940141
H 9.55009367 8.76263530 2.53048810
H 9.11178492 10.02244289 3.31360669
H 13.42754174 12.13784830 0.30607854
H 12.08091425 12.16368706 1.06846615
H 13.79108259 12.39388652 2.59816196
H 13.78904479 12.37272893 4.15080496
H 13.40400549 12.07875994 6.43470220
H 12.95258618 10.84665835 5.61634129
H 9.91053774 8.47253104 6.39902024
H 9.87985016 8.47467757 4.84553956
H 10.42107650 13.70550613 5.55896949
H 11.29762178 12.43163077 5.58582252
H 12.94237130 10.05510270 1.18713163
H 13.38183005 8.80265242 1.98267154
H 13.37893945 8.73959328 4.75482347
H 12.03684374 8.73635950 5.53507734
H 9.51215991 12.16489240 7.02344876
H 8.16978307 12.15196494 7.79137443
H 9.53411398 12.13866811 4.12747395
H 8.18524672 12.12980067 3.37002405
H 9.92406861 12.40364095 1.87397524
H 10.35118834 13.67641989 1.11513205
H 9.94847418 8.47530207 0.26602344
H 11.26037128 8.50720982 1.09282382
H 14.32543120 7.17972516 3.33137284
H 15.22396960 8.43749289 3.34813821
H 13.86381649 8.46117293 6.95436728
H 14.30959840 7.20554299 7.72685547
H 15.12555132 12.32941404 7.90726868
H 13.79023538 12.26731024 8.69538642
H 9.63824046 8.79707912 8.66741180
H 9.13722433 10.03050837 7.87798430
H 1.37316998 10.03128981 3.36769863
H 1.82941542 8.78222383 4.15491912
H 4.32669734 12.13402385 1.08249463
H 5.66535217 12.13655336 0.30024277
H 6.48766704 13.68103665 3.33778427
H 6.05000886 12.42580477 2.55374758
H 5.22142585 10.82274526 5.56609781
H 5.64888557 12.09707711 4.80240955
H 2.19606874 8.45949512 6.40217218
H 2.62134984 7.19496841 5.61757470
H 3.50789437 12.37743329 5.61915448
H 2.17331276 12.38505431 6.40384312
H 5.75516692 8.78447557 1.92243959
H 5.29322054 10.04561451 1.14524530
H 5.67255331 8.71882847 4.79349769
H 4.33767923 8.72306949 5.57929118
H 1.35412222 10.83195949 7.84256263
H 1.77929557 12.09797738 8.62441725
H 1.75379006 12.15425920 4.15605357
H 0.41650086 12.14084348 3.37935075
H 2.18023824 12.41327428 1.90870505
H 2.61991722 13.66788385 1.12437533
H 2.28070738 8.47879659 1.91705774
H 3.63863327 8.48099885 1.17474469
H 6.55340735 7.17772900 3.35341232
H 7.46450984 8.43351314 3.36250927
H 6.14008091 8.49320328 7.03806819
H 7.45919721 8.49415153 7.85548976
H 5.99712656 12.37318583 7.06455896
H 6.00047677 12.38332000 8.61081920
H 1.76495733 8.73362641 8.60958944
H 0.45080495 8.74314550 7.78572163
H 1.29097153 2.72883947 3.31278157
H 0.39387994 1.46700044 3.32650594
H 5.23459882 3.50841555 1.07090595
H 5.66913852 4.77710179 0.30200775
H 6.03171040 5.07138020 4.11980573
H 6.02659306 5.06628025 2.57080405
H 5.22559531 3.52293982 5.62819236
H 5.67370939 4.79842143 6.38294499
H 2.59589166 14.47762139 5.54357121
H 2.14833158 1.13713003 4.75977369
H 3.52105685 5.06472797 5.55036115
H 2.18863058 5.07985638 4.76220951
H 5.64744449 1.39094731 0.28480396
H 4.30688508 1.40356908 1.06164837
H 4.28730457 1.41604881 5.56039881
H 5.62963897 1.42554709 4.79120495
H 1.78307149 4.76820875 7.01926114
H 1.32794195 3.50477903 7.78520961
H 0.41932319 4.83267366 3.28501931
H 1.75735878 4.83986337 2.50644487
H 3.54273517 5.09815796 1.08473005
H 2.68286419 6.38016008 1.09104567
H 2.14641609 1.18159953 0.31097777
H 2.14034598 1.18562951 1.85655765
H 6.07133357 1.18014782 2.53773450
H 7.40102451 1.20070194 3.33020050
H 6.47651670 14.47953379 7.81207378
H 6.03936270 1.13870608 7.03528787
H 6.54658782 6.37829951 7.83349534
H 7.43280648 5.11285883 7.81752881
H 0.37712267 1.37502315 7.77901524
H 1.71689788 1.39213959 7.00366371
H 9.54659664 1.48887131 4.14255227
H 9.09842945 2.74997753 3.36868987
H 13.41232210 4.74965175 0.28255608
H 12.95577576 3.51398222 1.08433993
H 13.79193214 5.06351467 2.54366120
H 13.80466591 5.06495765 4.09302022
H 13.42927931 4.81396884 6.37051566
H 12.08911005 4.81761815 5.59737886
H 9.96237241 1.19505597 6.38454390
H 11.30084251 1.21359825 5.60728333
H 10.37737564 6.36381476 5.58134573
H 9.94165910 5.11520851 4.78431056
H 13.39609297 1.39738294 1.91033669
H 12.06091836 1.40041680 1.12947961
H 13.01136531 2.71350760 5.62285060
H 13.42858755 1.43060755 6.39302484
H 9.10808277 3.52956546 7.80294285
H 9.55735691 4.78432093 7.01849552
H 9.52844525 4.85642525 2.54308018
H 8.18453174 4.84015008 3.31549586
H 10.41097717 6.39711841 1.09605547
H 11.29038140 5.12100596 1.09524937
H 9.88674964 1.19492398 1.87681706
H 9.89567144 1.18551696 0.32839704
H 14.25624274 14.47893099 3.38529032
H 13.81249412 1.14234741 4.15501001
H 13.78770116 1.10991982 8.61522757
H 14.20507048 14.41481109 7.88014585
H 13.82625457 5.07699602 8.60859785
H 15.16789199 5.05119367 7.83880388
H 8.19630009 1.41830403 7.85832436
H 9.53535580 1.41969725 8.63598098
H 1.77527197 1.52494991 13.09986070
H 1.29438639 2.79043326 12.34393635
H 5.21467469 3.52022630 10.02420896
H 5.66934983 4.78892243 9.26186272
H 6.05477100 5.06372516 11.49878418
H 7.38562935 5.08209363 12.28691939
H 5.61461900 4.85313484 13.74461464
H 4.26860289 4.86216103 14.50508075
H 3.54876611 1.15718233 14.54995087
H 2.63771541 14.50944445 14.54578914
H 2.11277517 5.16972652 13.72729969
H 2.58305288 6.42299150 14.50199851
H 4.27897630 1.43015982 10.03209374
H 5.62420223 1.40413479 9.26339017
H 5.22216475 2.74560107 14.53275193
H 5.68415684 1.49098435 13.75376773
H 1.80859104 4.85311798 15.98175424
H 1.81488866 4.84404707 17.52772503
H 0.35647504 4.92250582 12.26698234
H 1.70579387 4.86718467 11.50801483
H 3.51122468 5.06757429 10.04635988
H 2.18027255 5.05765143 9.26442423
H 2.10343235 1.19086592 9.28833600
H 2.12379563 1.23436884 10.83503972
H 6.03020512 1.15339313 11.50728817
H 6.46684701 14.49964285 12.29140500
H 7.41811251 1.18130380 16.77411276
H 6.08733518 1.18523771 15.99050001
H 6.01409986 5.11389898 15.99375908
H 6.47575033 6.36299424 16.77880249
H 1.78902482 1.46398221 16.00216581
H 1.35869340 2.73716674 16.76141809
H 8.16916707 8.75042234 12.15271162
H 9.55573275 8.80530674 11.43693938
H 12.10852135 12.01128487 10.09490775
H 12.93880782 10.66423657 10.12636675
H 13.80091356 12.32827799 11.45654319
H 14.22974435 13.64287644 12.17803911
H 13.43998559 12.13249410 15.26912053
H 13.42926214 12.16360259 13.72205565
H 11.16709172 8.46952001 14.42062722
H 9.80767424 8.45119981 13.70613264
H 9.93677509 12.37877952 13.75368383
H 11.29461270 12.40479256 14.50016984
H 13.61708283 8.56522692 11.31469368
H 13.28099522 8.88049895 9.38265126
H 12.80746783 9.98759604 14.34299930
H 9.57388230 12.13417897 15.98801009
H 9.56795459 12.12892302 17.53614390
H 9.04217622 10.84803128 12.28953274
H 8.14402939 12.10685413 12.32189156
H 9.90405511 12.40894081 9.31246489
H 9.89529270 12.40606030 10.85611228
H 11.43475665 8.65742968 10.10495406
H 10.52965584 7.35487818 10.08488314
H 14.99006440 8.50623417 12.10325443
H 13.19858345 8.75228139 13.50652821
H 14.40553353 7.11114748 17.04616596
H 13.96689205 8.37258135 17.82660869
H 14.32120325 13.65884996 16.78335090
H 15.19591090 12.38529551 16.79109859
H 9.52289789 8.73712239 15.93950650
H 9.11118372 10.00397473 16.72762532
H 1.73422513 8.78385301 13.05536962
H 1.31479353 10.03955827 12.27325645
H 4.25884695 12.09793742 10.07145008
H 5.14647888 10.82917123 10.05436438
H 5.97666967 12.38648174 13.08422326
H 5.98190281 12.38099084 11.53858532
H 5.64489618 12.08215370 15.34364057
H 5.20089812 10.81897746 14.57413993
H 3.51294414 8.49866089 14.54719755
H 2.18984141 8.50754039 15.34320591
H 2.16539172 12.39619786 15.35292163
H 3.49109143 12.38412188 14.56795775
H 4.25982452 8.71122115 10.00845522
H 5.61774060 8.73091260 9.25170298
H 5.70380910 8.71173664 15.31366393
H 5.68859465 8.72571268 13.76378124
H 1.80431021 12.08446554 17.59443837
H 1.38087529 10.82065575 16.81403482
H 1.71434971 12.16713644 13.09254649
H 0.38526487 12.14888146 12.29115917
H 2.13451891 12.43182558 10.87234380
H 2.58755036 13.68574990 10.09307754
H 2.13902879 8.45605090 10.84681132
H 2.57609600 7.17841696 10.08349981
H 6.45320640 7.19155751 12.24918026
H 5.98540893 8.44957176 11.48357801
H 6.10794590 8.47385728 17.59859351
H 7.43265542 8.45874783 16.80297472
H 7.43020752 12.39689311 16.77493168
H 6.53887342 13.65769475 16.77866612
H 0.56247972 8.70725718 16.93308407
H 1.93511777 8.76515514 17.59628750
