383

O 9.09125261 1.77020646 12.25419552
O 12.95547359 4.54685483 10.09114044
O 14.27289055 5.43355017 12.34736461
O 12.96568579 4.48673535 14.55296549
O 10.37258057 0.85989529 14.51835241
O 10.39537427 5.39485169 14.56183351
O 12.94390529 1.79245065 10.01416930
O 12.91776602 1.78397992 14.38205045
O 9.07132443 4.49479513 16.79774408
O 9.09850960 4.51939348 12.29263875
O 10.38765934 5.43557868 10.06657663
O 10.34487388 0.87316939 10.00945216
O 14.27038363 0.84669433 12.16554483
O 14.39472161 0.70606218 16.23619449
O 14.23425424 5.36876761 16.82432646
O 9.07216877 1.76022311 16.78177422
O 9.07917237 9.04589590 3.36646663
O 12.96069350 11.81091457 1.13340097
O 14.22825703 12.73740361 3.35777940
O 12.97147712 11.77334751 5.56292224
O 10.41721346 8.18858200 5.59280298
O 10.39215425 12.66419030 5.56486573
O 12.96086453 9.09024386 1.09516832
O 13.01989851 9.06307593 5.57207174
O 9.05356703 11.81784227 7.84394273
O 9.03187848 11.78950259 3.33555004
O 10.37125556 12.72415690 1.11079976
O 10.36260499 8.17816462 1.10767359
O 14.30651351 8.17573988 3.31516480
O 14.28357912 8.18618710 7.81357826
O 14.24527333 12.75438341 7.79640110
O 9.08313638 9.09668959 7.80351166
O 1.34325766 9.06171507 3.34466629
O 5.20255188 11.78678578 1.09179397
O 6.44605285 12.70995530 3.36485330
O 5.14983285 11.79110530 5.60510162
O 2.60630536 8.12856450 5.59502144
O 2.58000165 12.68799989 5.59713014
O 5.22016482 9.04136801 1.10797441
O 5.18829713 9.04256246 5.57257196
O 1.25452477 11.81326034 7.83346967
O 1.32499029 11.80651769 3.33723966
O 2.61310366 12.70457916 1.07751086
O 2.62156015 8.15539302 1.11177300
O 6.50918053 8.12588813 3.34164999
O 6.51426732 8.16403599 7.82159779
O 6.45123977 12.70623660 7.83651045
O 1.33569242 9.08813591 7.82488626
O 1.37083986 1.75918708 3.36152368
O 5.17773460 4.50180141 1.09870404
O 6.47376214 5.38996443 3.34909064
O 5.19882848 4.47896353 5.59483732
O 2.64504256 0.84609844 5.63870111
O 2.61004949 5.39809014 5.57462267
O 5.24747853 1.76037025 1.13328091
O 5.20534822 1.75488367 5.60616127
O 1.31351535 4.47104741 7.81102968
O 1.33979486 4.53418468 3.33297893
O 2.60650619 5.41402602 1.03960077
O 2.63597043 0.83109249 1.13897828
O 6.54597631 0.86513025 3.39031406
O 6.53082109 0.84533258 7.80722742
O 6.49448693 5.40792278 7.84608196
O 1.21699274 1.74201974 7.77321925
O 9.16373876 1.79615177 3.43900732
O 12.98412263 4.57955317 1.14134334
O 14.31423120 5.47615326 3.33413261
O 13.01144960 4.66905553 5.54453112
O 10.53169902 0.90001327 5.58947461
O 10.33178039 5.48321529 5.60110779
O 12.88083717 1.99712850 1.50795118
O 12.97180593 1.54979469 5.67288679
O 9.06557928 4.48279417 7.84092601
O 9.09140788 4.51283206 3.35046052
O 10.33889550 5.46356777 1.11092792
O 10.32014239 0.82041671 1.14846725
O 14.18417815 0.76872992 3.58630556
O 14.25133918 0.81768426 7.67985015
O 14.28000611 5.45021691 7.91121931
O 9.17018872 1.76404829 7.72581300
O 1.34605409 1.77450484 12.30945779
O 5.16509953 4.50877713 10.07259569
O 6.47887963 5.38460445 12.31584902
O 5.19149880 4.50332911 14.57190910
O 2.65248551 0.83576089 14.55191634
O 2.60587669 5.40882786 14.57188602
O 5.19999794 1.76370902 10.04970002
O 5.23688659 1.75992188 14.53652885
O 1.28835436 4.49433688 16.76789039
O 1.32334410 4.52150154 12.31331107
O 2.57857260 5.41845443 10.03554645
O 2.58568606 0.85187789 10.05080811
O 6.52051089 0.85709685 12.28676794
O 6.47340424 0.82332004 16.80395735
O 6.49691925 5.41931233 16.80796892
O 1.39181276 1.79126995 16.81107047
O 9.10146945 9.04887895 12.32982934
O 12.97263699 11.82821723 10.02314607
O 14.25218132 12.73171290 12.27845652
O 12.96997354 11.79942557 14.52770708
O 10.39602560 8.13629793 14.57038785
O 10.40092298 12.72874725 14.56611127
O 12.99300318 9.06592343 10.04775897
O 12.96712275 9.06619989 14.54549830
O 9.11754648 11.82392335 16.80404488
O 9.10565101 11.79396167 12.33893479
O 10.37695741 12.72333693 10.07297738
O 10.37967672 8.18379504 10.04666337
O 14.27894932 8.18238084 12.30430498
O 14.24760733 8.14903171 16.82009825
O 14.26072738 12.57612144 16.77392467
O 9.07398178 9.08915166 16.78053072
O 1.34736645 9.08446609 12.32194828
O 5.17035584 11.78877304 10.09225963
O 6.51737401 12.69824561 12.30723186
O 5.21281578 11.80482789 14.55832084
O 2.62118629 8.15310641 14.57538272
O 2.61954980 12.68438807 14.56159200
O 5.22588784 9.03711063 10.08317387
O 5.20441036 9.06323892 14.54296667
O 1.34857171 11.74229661 16.79161917
O 1.28864896 11.81471058 12.31687876
O 2.57489745 12.72905662 10.06890785
O 2.61370342 8.17317553 10.07138979
O 6.52124394 8.12202650 12.32946421
O 6.51116448 8.16455863 16.79286490
O 6.52002925 12.69296672 16.80005657
O 1.31542014 8.99849080 16.81339154
H 9.10639645 2.73248299 12.24718392
H 9.53627401 1.47841798 11.44956548
H 13.42796329 4.85417717 10.87016553
H 13.44357476 4.87115548 9.32409932
H 14.25443893 6.39509203 12.36410675
H 13.81587962 5.12702423 13.13919038
H 13.40970244 4.74954740 15.36628999
H 12.97243117 3.52036128 14.52324754
H 11.27836839 1.19590787 14.47810390
H 9.93451759 1.17969827 13.72422714
H 11.29807735 5.05422872 14.54761734
H 9.96491039 5.07791727 13.76181567
H 12.03192814 1.48927482 10.00943995
H 12.91844103 2.75284726 10.02607700
H 13.43996483 1.39662502 15.10707879
H 13.35849946 1.47988471 13.58405826
H 9.54270927 4.78829302 16.01140001
H 9.08535713 3.53107667 16.78033632
H 9.53020866 4.86462401 11.50292917
H 8.18982513 4.83371531 12.27654450
H 10.40391832 6.39745645 10.04890677
H 11.30737164 5.14355241 10.07366845
H 9.92806662 1.15452927 9.18582717
H 10.35154543 14.51366975 10.00597365
H 15.16889301 1.18525569 12.18562743
H 13.84430967 1.19092914 11.37050313
H 15.22133298 1.06917200 16.54411547
H 14.34994955 14.39408712 16.50804895
H 13.78527143 5.07073219 17.62819691
H 14.22312943 6.32896190 16.84406568
H 9.52126682 1.42797198 15.99799630
H 8.17502032 1.41640331 16.75858752
H 9.55092118 8.73403694 2.58668668
H 9.57522871 8.74201152 4.13498213
H 13.39737971 12.16885374 1.91670867
H 12.06286740 12.15824454 1.13799020
H 14.23368647 13.71029047 3.43345112
H 15.14355590 12.45192214 3.35210135
H 12.06438390 12.09830868 5.54730720
H 13.40620072 12.13086603 4.77823890
H 11.34018189 8.46378215 5.58441933
H 10.40996643 7.22321452 5.60254689
H 9.90953498 12.37153840 6.34063274
H 9.89943857 12.35862702 4.79850117
H 12.93914142 10.05502466 1.12048160
H 12.04650684 8.79098649 1.10718005
H 13.46885381 8.76778843 4.77293879
H 13.01125875 10.02883682 5.54604858
H 9.49830467 12.15375316 8.62884628
H 8.15104705 12.14995997 7.86458494
H 9.01667753 10.82760427 3.34186481
H 8.11674468 12.08594548 3.34578739
H 10.35235331 13.69037970 1.14210497
H 9.90333887 12.41600697 1.89241006
H 9.90744222 8.47849135 0.31586484
H 10.34378502 7.21330564 1.08829749
H 14.29469726 7.20877035 3.30138924
H 13.83225185 8.47212511 2.53201219
H 13.85688844 8.49977588 7.00691275
H 15.18613375 8.52011488 7.79918295
H 14.23491974 13.72741137 7.74413230
H 13.79479059 12.43625187 7.00754774
H 9.08843455 10.06083730 7.79384128
H 9.56427655 8.80466193 7.02094138
H 0.43470000 8.73650134 3.34635476
H 1.76090619 8.72578054 4.14407052
H 5.67673742 12.08200148 0.30761844
H 5.21849358 10.82436068 1.07923116
H 5.98400631 12.38579888 2.58562746
H 5.96800678 12.38122951 4.13293313
H 5.13701597 10.82883190 5.59176343
H 4.23035912 12.08340205 5.60409356
H 2.15776213 8.44169062 6.38748493
H 2.58675458 7.16512780 5.61739424
H 2.08735748 12.37448700 6.36282097
H 2.11217681 12.37827411 4.81332319
H 5.69543904 8.70747965 1.87682280
H 5.68492905 8.71587368 0.33012281
H 5.62625661 8.71476500 4.78021997
H 4.28763669 8.70090076 5.55756389
H 0.35171934 12.15960566 7.83872792
H 1.69217668 12.15714641 8.61807552
H 1.33485432 10.84476634 3.31637023
H 1.77603129 12.10607530 2.54190871
H 3.52997687 12.41366997 1.08349297
H 2.62718878 13.66889080 1.09694625
H 3.52798054 8.47906628 1.12807856
H 2.19190368 8.48048908 1.91130966
H 7.42674835 8.42097865 3.36043144
H 6.52545950 7.16253831 3.34803801
H 6.06664532 8.48118760 7.03048886
H 7.41464163 8.50658368 7.78704403
H 5.98235190 12.37286189 8.60770712
H 5.98175303 12.37758742 7.06217459
H 1.31884817 10.05229645 7.84464443
H 1.78492186 8.80048642 8.62602562
H 1.35091352 2.71901557 3.37389589
H 1.82074140 1.47869852 4.16221035
H 5.62640262 4.83410441 0.31487463
H 4.27008171 4.82376955 1.05555068
H 5.99655126 5.07155855 2.57608126
H 6.00978287 5.05680086 4.12445338
H 5.21303793 3.51509011 5.62429021
H 5.65511031 4.78754670 6.38381799
H 2.60373986 14.48746803 5.63402544
H 2.12811070 1.14135420 6.39834141
H 3.51243380 5.06379601 5.56014643
H 2.18028749 5.08707030 4.76819807
H 5.24006464 2.72279792 1.14412648
H 5.71871817 1.47439223 1.92300130
H 5.65421026 1.42100715 6.39083912
H 4.29993856 1.42305750 5.64253665
H 1.27496975 3.50688428 7.78413932
H 1.76435333 4.75436645 7.00951584
H 0.43023914 4.85696858 3.31796391
H 1.75594836 4.84380763 2.52389400
H 2.59397652 6.37615989 1.03650947
H 2.13137842 5.11838810 0.25482184
H 3.53573000 1.16647241 1.17284627
H 2.18604517 1.16388326 1.92643870
H 6.06112846 1.15887667 4.16876974
H 6.50960819 14.50621028 3.39426425
H 6.08296361 1.15978310 8.59835887
H 6.49552620 14.48611226 7.83693122
H 7.40600151 5.09285915 7.84727297
H 6.53269050 6.36922406 7.82871317
H 0.30320733 1.40305930 7.74402367
H 1.62693493 1.40736602 8.57272324
H 9.66189271 1.47251537 4.20704975
H 8.27572041 1.43717911 3.49538974
H 12.94784351 3.61108215 1.26663148
H 12.07347331 4.87973141 1.13817132
H 13.83005547 5.14335347 2.56817920
H 13.83945351 5.16528710 4.11832877
H 12.09216552 4.93142104 5.59307464
H 13.41594572 4.92063985 6.37489771
H 11.51059625 1.17008234 5.62152229
H 10.52135620 14.54670905 5.57505156
H 9.87879055 5.11755565 6.36613072
H 9.89034586 5.13105164 4.82156183
H 12.05917234 1.54152615 1.34912401
H 13.72638293 1.08501182 4.42590090
H 12.99416924 2.49652620 5.63103544
H 9.12290887 3.51969330 7.81689904
H 9.54196674 4.77575995 8.62317334
H 8.16744186 4.77728344 3.35177022
H 9.10909126 3.54772573 3.38295661
H 9.89257002 5.09952250 0.34121620
H 9.88874037 5.11188993 1.88690364
H 9.88283096 1.18072319 0.37508663
H 9.88805611 1.18844925 1.92566741
H 15.06515797 1.13289408 3.57429572
H 13.31853460 1.55372998 2.24004040
H 13.78187961 1.15669548 8.43929764
H 13.72420835 1.13191672 6.85415085
H 15.18394020 5.12468903 7.86406224
H 14.32113953 6.41056540 7.87613549
H 9.65372847 1.44452511 6.94327013
H 8.27649787 1.41878599 7.68430692
H 1.78286658 1.46512563 13.10913501
H 1.34687752 2.73593139 12.34300374
H 4.25987936 4.83585324 10.03593877
H 5.61332507 4.83983963 9.28682770
H 5.99613794 5.06634853 11.54554321
H 6.01510139 5.05739876 13.09378800
H 4.28423868 4.82661929 14.60081969
H 5.63310390 4.83489012 15.36109012
H 3.57084288 1.12092839 14.53489810
H 2.65533851 14.47601695 14.55912285
H 2.11778864 5.07135144 15.33349366
H 2.14688146 5.09030266 13.78751276
H 5.66157988 1.46818814 10.84071163
H 5.19945811 2.72589983 10.07208758
H 5.70241304 1.47223187 13.74433165
H 5.22920892 2.72235522 14.52608315
H 0.36450640 4.76821789 16.79207667
H 1.29627291 3.52863517 16.79280605
H 0.41650889 4.84691105 12.30534160
H 1.74150128 4.84325533 11.50840028
H 2.56419456 6.38002987 10.01254967
H 2.12638619 5.10408165 9.24369493
H 2.17264742 1.18871502 10.85323787
H 3.48736307 1.18584964 10.04813885
H 7.43764811 1.15448979 12.27181437
H 6.54006733 14.49738246 12.29395257
H 6.02351305 1.16534937 17.58382715
H 6.01020610 1.16506498 16.03277033
H 7.40914964 5.10699660 16.80266210
H 6.53338829 6.38119085 16.80662639
H 1.82337616 1.44456596 17.59675488
H 1.86327092 1.44188462 16.05040436
H 8.19970030 8.71222556 12.35475769
H 9.54539240 8.70734088 13.11358769
H 12.99768333 10.86735358 9.99674955
H 13.41868067 12.14483966 9.22689157
H 13.80090715 12.42282964 11.48576958
H 14.24724951 13.69582148 12.23502394
H 13.43750505 12.15244888 13.76390198
H 13.44824530 12.09106308 15.31474856
H 10.42251655 7.17308984 14.57624010
H 11.31070441 8.43989623 14.56012685
H 10.41765772 13.69290533 14.54668743
H 11.31887226 12.43435506 14.55456181
H 12.08543771 8.74748454 10.02743076
H 13.42285723 8.73683753 9.25006728
H 13.43324415 8.77338176 13.75574133
H 12.97380331 10.03015625 14.52203102
H 9.59224831 12.16336325 16.03726807
H 9.57779160 12.15215884 17.58637487
H 9.56370049 12.09980433 13.12983265
H 9.11919574 10.83160896 12.36096566
H 9.96438018 12.39017680 10.87517769
H 11.28441756 12.40000603 10.06925665
H 9.91729349 8.50350152 10.82751658
H 9.90718972 8.52230640 9.27885861
H 13.84906608 8.49930335 11.50258797
H 15.18473984 8.50658392 12.28620444
H 13.79137207 8.48038063 16.04106799
H 13.77593942 8.49777352 17.58511282
H 13.82632673 12.32220667 17.59398351
H 15.16785244 12.26379363 16.82224950
H 9.10717086 10.05237190 16.76696797
H 9.54988238 8.77984290 16.00273420
H 1.34066501 10.04799381 12.34579563
H 1.79144534 8.78437170 13.12163061
H 5.19691160 10.82682981 10.10918170
H 5.64823676 12.08988651 10.87212035
H 7.42161907 12.36691737 12.33506306
H 6.08166032 12.38256380 13.10555225
H 5.64765858 12.12858284 15.35468972
H 4.30559400 12.12918485 14.57955417
H 2.60818113 7.18969288 14.57995402
H 2.15442577 8.43339790 15.37104884
H 2.14977074 12.34846408 15.33331943
H 2.13557734 12.38042107 13.78703037
H 5.69826234 8.69771807 10.85017268
H 5.69475263 8.72254511 9.30276594
H 4.28815157 8.76568662 14.55977990
H 5.18408646 10.02630974 14.54400244
H 1.79287345 12.06475684 17.58334179
H 1.36179659 10.78097657 16.82966638
H 1.72438115 12.14813716 11.52539392
H 0.38238844 12.14430455 12.29105049
H 3.48606327 12.42137370 10.07480680
H 2.60570914 13.69295529 10.06159179
H 3.52622080 8.47846251 10.09486596
H 2.18982091 8.50180264 10.87159350
H 6.04792666 8.43183856 13.10906910
H 6.49429493 7.15928409 12.35031935
H 7.41122825 8.50919677 16.76578095
H 6.06733448 8.48824057 16.00253673
H 7.44137564 12.41040368 16.79983892
H 6.52606873 13.65649115 16.80717958
H 0.40264516 8.68976905 16.84026776
H 1.74752237 8.68213940 17.61400162
