383

O 9.11569821 1.79590663 12.35761423
O 12.93330625 4.47640721 10.03594448
O 14.26282045 5.32883278 12.31980743
O 12.88975190 4.50403014 14.55465065
O 10.40007811 0.82737190 14.57119675
O 10.41233228 5.54045860 14.56032280
O 12.94728067 1.72655701 10.08794461
O 12.96861459 1.78444366 14.56230227
O 9.06954141 4.46000158 16.85058241
O 9.14170424 4.59817982 12.38699679
O 10.35281803 5.41747241 10.08195513
O 10.34657978 0.86575363 10.09597299
O 14.22770357 0.80827229 12.33301563
O 14.26732476 0.84127485 16.81721498
O 14.25092176 5.39366572 16.79393265
O 9.10918630 1.75378325 16.79719101
O 9.06114742 9.10576193 3.31443834
O 12.97610170 11.75895055 1.09810965
O 14.27393417 12.68846641 3.35437857
O 12.96931002 11.81457995 5.60437847
O 10.40911210 8.17151241 5.51829086
O 10.38454880 12.75879579 5.56571763
O 12.96602966 9.03618433 1.13954192
O 12.99537542 9.06633842 5.58580531
O 9.07992783 11.84870697 7.81630395
O 9.09930808 11.85539733 3.31721132
O 10.37083771 12.65646092 1.03007229
O 10.39701013 8.14378484 1.05557654
O 14.28234757 8.11279921 3.37867857
O 14.24542441 8.15140902 7.81214471
O 14.26617130 12.73526158 7.82242223
O 9.04343804 9.10646175 7.70790267
O 1.32627317 9.07241367 3.30668128
O 5.23218170 11.80000623 1.10310900
O 6.49690120 12.74265028 3.35960725
O 5.19498462 11.83285757 5.59680082
O 2.61474076 8.16041691 5.52548289
O 2.60907689 12.74595182 5.58356456
O 5.18986756 9.07303707 1.12617468
O 5.19275259 9.08534938 5.54430961
O 1.31934700 11.81629764 7.82754053
O 1.34332158 11.82358694 3.32761530
O 2.64562499 12.73500063 1.09251295
O 2.60436359 8.14396369 1.09344753
O 6.51173013 8.13372204 3.34241067
O 6.51024772 8.12682841 7.75494010
O 6.47334188 12.68798401 7.85773934
O 1.28654745 9.06452262 7.75264126
O 1.30634986 1.71772752 3.31171355
O 5.20216506 4.52246193 1.05844591
O 6.47844058 5.40162858 3.31352069
O 5.21460913 4.48944411 5.56326078
O 2.59542405 0.88395725 5.58010887
O 2.62417745 5.40862235 5.55732267
O 5.23456996 1.78444992 1.05027165
O 5.18808951 1.75304250 5.55541110
O 1.33111900 4.52960303 7.82495422
O 1.31327999 4.46158836 3.33563223
O 2.59022363 5.39016417 1.07523985
O 2.64293893 0.87384131 1.07306314
O 6.48732602 0.88534943 3.31199624
O 6.48139609 0.81620551 7.80702969
O 6.51450722 5.39501139 7.79025787
O 1.30430592 1.80152346 7.82488178
O 9.08903732 1.74552064 3.31167853
O 12.94549139 4.47014487 1.10943165
O 14.26465533 5.37715172 3.35417843
O 12.97210632 4.52298006 5.60902849
O 10.39370527 0.89514846 5.57845200
O 10.37708307 5.42535594 5.60035375
O 12.93258509 1.73541177 1.11905656
O 12.98365208 1.78334911 5.59259256
O 9.10562193 4.49681144 7.84556350
O 9.06739278 4.49460342 3.37940288
O 10.39560297 5.43059763 1.13201886
O 10.35345019 0.79409299 1.08272550
O 14.24150191 0.83268795 3.33493528
O 14.25891325 0.88409553 7.84081515
O 14.25734441 5.40316181 7.84732839
O 9.08695707 1.74656137 7.84375329
O 1.28324731 1.72137902 12.30337888
O 5.25023262 4.48107828 10.07175468
O 6.52430731 5.40913296 12.33407803
O 5.20538259 4.51589835 14.55262095
O 2.62962764 0.91297642 14.56565877
O 2.59836969 5.38047678 14.55691784
O 5.21946740 1.74051574 10.05906406
O 5.24116738 1.76299387 14.57866307
O 1.28380051 4.50502712 16.78569552
O 1.30565023 4.48518668 12.29271170
O 2.62944963 5.35365186 10.06730791
O 2.61368170 0.88401662 10.06305860
O 6.51281815 0.86299549 12.32358051
O 6.55154278 0.81176853 16.79391040
O 6.48487394 5.44542107 16.80967878
O 1.31546022 1.78357916 16.81262009
O 9.00211139 9.16857845 12.23077039
O 12.90220956 11.80434446 10.05771253
O 14.16054887 12.68186082 12.34871127
O 12.90249127 11.68294455 14.54666239
O 10.40643053 8.04749047 14.77409828
O 10.38187544 12.70348410 14.52697804
O 12.82813702 9.10786205 10.00502182
O 12.75212109 9.02540110 14.61847793
O 9.14216362 11.67032239 16.76903217
O 9.06454955 11.83664060 12.28123180
O 10.34446716 12.74368462 10.06668796
O 10.29657827 8.13106037 9.97419657
O 13.79998112 8.15373045 12.23700655
O 14.28239842 8.09581714 16.84921626
O 14.24096808 12.69691528 16.79095316
O 9.25218823 8.99644094 16.76695370
O 2.19205474 9.31711387 12.39034784
O 5.17963530 11.76990359 10.08007810
O 6.44994300 12.73528958 12.31860896
O 5.19526128 11.83360581 14.58255432
O 2.69190756 8.14967239 14.68408656
O 2.60805064 12.77304169 14.56880762
O 5.20032484 9.03694527 10.01076992
O 5.24304053 9.11122680 14.60364538
O 1.31960953 11.82964419 16.79088145
O 1.28609428 11.95536316 12.28038639
O 2.60416143 12.73040610 10.05792908
O 2.66745167 8.09614998 9.92800661
O 6.41729506 8.16869529 12.32255180
O 6.52633445 8.14926291 16.81373832
O 6.59033734 12.66859666 16.81349060
O 1.33561415 9.07014518 16.82821510
H 9.54871092 1.44195776 13.14220203
H 8.20974701 1.47395927 12.37349271
H 12.89721734 3.51556836 10.05367999
H 12.02443947 4.79564838 10.05639677
H 13.78051632 5.02809518 11.54674438
H 13.76594639 5.03047518 13.08861250
H 13.34389954 4.84732008 15.32856756
H 12.00090984 4.89740696 14.56178895
H 10.42450047 14.46472023 14.55842108
H 11.31335373 1.13273321 14.56693159
H 9.95562116 5.21098112 15.33135204
H 10.40737913 6.55634341 14.63831327
H 12.04069211 1.40165636 10.10833451
H 13.37653638 1.39899873 10.88629919
H 13.42635231 1.49917752 15.35781250
H 12.94076148 2.75024279 14.57955553
H 9.51409934 4.81659741 17.62397123
H 8.17979239 4.82334615 16.84979007
H 9.16746157 3.64056641 12.43354894
H 9.59987135 4.94038052 13.17383378
H 9.92825252 5.15244826 10.90658693
H 10.33581091 6.38262571 10.06227765
H 10.33231864 14.50356638 10.12063078
H 9.91085138 1.17419797 10.89907157
H 14.17935947 14.44746054 12.36837600
H 13.78237439 1.14000101 13.12025082
H 14.24265346 14.47969961 16.81593466
H 13.79912949 1.12799605 17.60694815
H 13.79310570 5.09056503 17.58255728
H 14.24548815 6.35953154 16.82528508
H 9.57394859 1.46397958 16.00453027
H 9.10760123 2.72001468 16.79194393
H 9.08378369 10.06744973 3.33479777
H 9.54967678 8.79901817 4.08455111
H 12.98185578 10.79467670 1.12601746
H 13.42402835 12.06066236 1.89312020
H 13.81709156 12.39288488 4.14907638
H 14.24433964 13.65056058 3.36480443
H 13.40472810 12.15213606 6.39544414
H 12.06660184 12.14828935 5.61638199
H 11.32897115 8.45600506 5.53920008
H 10.41300174 7.20928679 5.54576727
H 10.37987732 13.72139074 5.54423997
H 9.93569844 12.46238115 4.76661805
H 12.05932436 8.70521426 1.12500763
H 13.38597329 8.68519216 1.92933296
H 12.99219586 10.02823868 5.61641308
H 13.43490060 8.76076970 6.38916032
H 9.54914346 12.16417040 8.59800739
H 9.54500375 12.19465290 7.04853464
H 8.19430414 12.18216700 3.30326189
H 9.52038282 12.14709477 2.50025128
H 11.27705557 12.33248597 1.03716246
H 9.95329680 12.28940229 0.23867668
H 9.90182136 8.50860591 1.79108161
H 9.97128277 8.45848114 0.23509295
H 13.85750029 8.46475343 4.16869215
H 15.17940134 8.46070282 3.36706246
H 15.16040018 8.45114492 7.80868420
H 14.26809603 7.18992513 7.83672947
H 15.18015676 12.43201210 7.83292301
H 14.29347823 13.69712144 7.83443261
H 9.53220080 8.81762339 6.93098850
H 9.07526914 10.06814925 7.72594907
H 1.34671181 10.03446858 3.28940600
H 1.77378486 8.76719466 2.50832202
H 5.67592560 12.09739099 1.90290467
H 5.22355782 10.83617478 1.13045529
H 6.47110766 13.70476839 3.36169387
H 6.04298165 12.44871030 4.15618347
H 4.29296823 12.16924081 5.61540527
H 5.62327469 12.13070180 6.40688086
H 2.16015771 8.45298734 4.72742390
H 2.60568466 7.19804418 5.51619762
H 2.58866540 13.70844256 5.55973233
H 2.16250398 12.43992199 4.78675350
H 5.63087066 8.72471191 1.90710905
H 4.29120401 8.72840865 1.13229542
H 5.16504638 10.04723271 5.56306282
H 4.27945346 8.77942437 5.53891683
H 1.78804171 12.13669362 8.60718744
H 1.78807893 12.15662618 7.05953914
H 1.77577899 12.15995446 2.53514296
H 0.43301002 12.13774238 3.30852454
H 2.67719706 13.69705320 1.07931368
H 3.55780768 12.42580023 1.09076538
H 2.58249350 7.18234695 1.06645488
H 2.15584489 8.45634585 0.29660061
H 7.40982607 8.48418713 3.34690220
H 6.07358969 8.47967000 4.12691795
H 6.05691838 8.46551375 6.97686110
H 7.40526187 8.48400769 7.72494752
H 7.38450858 12.37542107 7.87042299
H 6.04363832 12.35008534 8.65252124
H 1.75194497 8.78306011 6.95911723
H 1.31354736 10.02622339 7.77003258
H 0.40335979 1.38374983 3.28805313
H 1.75001648 1.40256778 2.51686499
H 5.63663390 4.87469700 0.27016513
H 4.29211505 4.83526450 1.03862820
H 6.02529004 5.11607051 2.51230838
H 6.48553737 6.36517685 3.30138464
H 5.69136901 4.81813191 6.33408072
H 5.67522357 4.82435712 4.78603952
H 3.50346355 1.20454826 5.54773555
H 2.16081141 1.19376674 4.77843920
H 3.52838933 5.07829293 5.53977238
H 2.18273321 5.05554985 4.77768853
H 5.69902461 1.46719817 0.26765360
H 5.24389421 2.74762431 1.01684024
H 5.64940670 1.46732689 4.75934519
H 5.21227055 2.71638714 5.55340575
H 1.81426105 4.83211177 8.60327397
H 1.79725917 4.86399048 7.05258475
H 1.28473670 3.49944086 3.32561958
H 0.39859470 4.76488570 3.34396944
H 2.11240724 5.06824004 0.30222947
H 2.12765786 5.05293805 1.84824757
H 2.19732070 1.20692794 0.28548580
H 3.54420785 1.21175873 1.04749258
H 6.06646002 1.21354328 2.50965724
H 7.39984133 1.19348740 3.29487889
H 6.02886363 1.11236751 7.01154667
H 6.46535770 14.45480985 7.80096882
H 6.53373338 6.35886538 7.78434184
H 7.43155240 5.10107041 7.81129755
H 1.75909890 1.49511431 7.03380211
H 1.32755647 2.76478965 7.79989417
H 9.56225182 1.43524155 4.09010434
H 9.55048841 1.39472798 2.54135212
H 12.04956421 4.82690023 1.12721267
H 13.38683723 4.79847391 1.89839362
H 13.81001581 5.09266585 4.15408272
H 14.26890778 6.34058843 3.37294685
H 13.40553385 4.85008516 6.40591570
H 12.06569774 4.84736204 5.62704589
H 9.95595816 1.20776967 6.37720445
H 11.29845784 1.22460387 5.60711816
H 9.91908959 5.09612750 6.38134195
H 9.90201866 5.08305260 4.83552643
H 12.90594857 2.69909455 1.10794073
H 12.01997955 1.42851585 1.09952938
H 13.43524018 1.48356619 6.38947329
H 12.99486550 2.74636537 5.61590074
H 9.54264738 4.79758199 8.65247675
H 9.11172968 3.53486203 7.86734917
H 9.05870983 3.53309669 3.34250727
H 8.14947942 4.78360901 3.35239944
H 9.92883512 5.14941789 1.92276793
H 10.37889485 6.39634378 1.11845044
H 10.34748010 14.43368207 1.03398841
H 9.91207762 1.11560284 0.28759143
H 13.79346275 1.17866653 4.11357413
H 13.75785322 1.16090488 2.56789890
H 13.81933777 1.18939512 8.64246112
H 15.15916604 1.22540640 7.86385065
H 13.81615015 5.06627258 8.63651410
H 15.16454766 5.08371119 7.87039413
H 8.18492290 1.41281959 7.84900404
H 9.50857576 1.41943547 8.64723563
H 1.73211146 1.42304551 13.10055247
H 0.38587329 1.37277471 12.33810577
H 5.25829960 3.51901093 10.03981773
H 5.68772469 4.78918918 9.27238250
H 7.44604758 5.12575033 12.33598458
H 6.12236842 5.06611551 11.53101308
H 5.67904040 4.81340415 13.76749544
H 5.24370156 3.55478713 14.54995995
H 3.53659535 1.23513696 14.58960671
H 2.19235883 1.23797810 15.35911475
H 2.16736000 5.06658173 13.75569483
H 3.50738259 5.06546085 14.52775645
H 5.64049702 1.39853306 9.26381060
H 4.30650514 1.43390720 10.04566664
H 5.71764446 1.41506092 15.33962042
H 5.69572844 1.43513620 13.79515606
H 0.37883168 4.84037900 16.76120730
H 1.72564335 4.82384779 15.99015573
H 1.26264323 3.52494189 12.30000451
H 0.39087439 4.79790478 12.30650186
H 3.53721292 5.03903689 10.11048113
H 2.17969555 5.04592632 10.86308434
H 2.13883379 1.22066061 9.29705004
H 2.13501819 1.18705751 10.84281267
H 6.06001107 1.16372147 11.52969507
H 6.48533398 14.50154026 12.30150147
H 7.46335204 1.12605066 16.79306162
H 6.59068629 14.45112586 16.80575477
H 6.49690289 6.41145634 16.78404510
H 6.04253868 5.15114411 16.00758768
H 0.40774594 1.46147462 16.81112290
H 1.26925938 2.74704212 16.80068166
H 9.43773466 8.78228182 11.47024398
H 8.11984883 8.79459786 12.26391979
H 12.89648967 10.83735294 10.02490618
H 13.38480797 12.10542084 9.28434448
H 13.71113385 12.29140731 13.10848691
H 13.71473368 12.35023807 11.56351626
H 12.85355455 10.71081425 14.59267301
H 13.36656520 11.98185274 15.33072499
H 11.82752235 8.63941358 14.69505174
H 9.96647717 8.38964893 14.00708609
H 9.93618066 12.38204250 13.73594592
H 11.27139013 12.32889614 14.51474634
H 13.20760872 8.74811212 10.83000510
H 13.35081087 8.75971002 9.28054369
H 13.25925489 8.68083429 15.34976569
H 13.43726543 8.43948226 13.08111154
H 9.57190405 11.99807902 15.97324931
H 9.19428280 10.69874902 16.73467523
H 8.15206836 12.13743937 12.29815786
H 9.03147302 10.86699332 12.27023751
H 9.90056564 12.40364498 10.85453366
H 11.24764499 12.40606970 10.08840464
H 11.19378132 8.48769582 9.97006681
H 9.86643311 8.47242120 9.18713788
H 13.98557987 7.22144408 12.30919038
H 15.17330898 8.45551629 16.84086586
H 13.84576351 8.44750309 17.62903576
H 15.14809410 12.37610670 16.80424897
H 13.81578603 12.34917046 17.58110158
H 8.35129904 8.67985386 16.75062950
H 9.71970873 8.60278778 15.93918558
H 2.23761967 8.90564921 11.53080076
H 1.74793755 10.15644387 12.29697197
H 4.26575479 12.07328406 10.08091948
H 5.15591228 10.80591974 10.07020675
H 5.99503682 12.40532919 13.10135890
H 5.98486356 12.37776513 11.55560604
H 5.68412894 12.11244042 15.36258329
H 5.20438485 10.86835736 14.58938619
H 2.63026132 7.19488634 14.60889166
H 2.40971942 8.52499658 13.83440279
H 3.51615683 12.45241607 14.56302217
H 2.65206690 13.73411291 14.57266205
H 5.65635103 8.71731096 9.22756449
H 4.30089330 8.69069084 9.96264192
H 4.34963827 8.74988610 14.63036165
H 5.64327552 8.78207332 13.79125027
H 1.77924846 12.16625623 16.01350167
H 1.80064313 12.15708252 17.55586904
H 0.35374920 12.18412419 12.33353778
H 1.70564966 12.26197025 13.08825544
H 2.12258228 12.46252494 10.85241704
H 2.60905050 13.69213711 10.06376546
H 2.60555611 7.13828363 9.96722650
H 2.15285767 8.39298554 9.17383723
H 5.97081280 8.44668568 11.51739544
H 6.43981655 7.20802391 12.31252745
H 6.05940059 8.49264211 17.57813769
H 6.08678295 8.51063799 16.03657783
H 7.47732596 12.28855881 16.81213921
H 6.14761200 12.34353907 17.60299209
H 1.33671705 10.03069877 16.78920423
H 1.79769163 8.76053262 16.03744060
