383

O 9.10995598 1.78777610 12.31178741
O 12.96585877 4.48774008 10.08180932
O 14.25667976 5.39598576 12.31601088
O 12.94022229 4.49887662 14.57142045
O 10.35735485 0.87713372 14.54900107
O 10.35957847 5.43588626 14.56198189
O 12.97563269 1.75174038 10.08695365
O 12.96405384 1.76452724 14.53672354
O 9.08609123 4.50980017 16.81629219
O 9.07343640 4.52483083 12.30594219
O 10.37910232 5.40969002 10.06579650
O 10.36740288 0.86414684 10.07256469
O 14.26917001 0.83942244 12.32399504
O 14.28534667 0.85226491 16.77100421
O 14.25635541 5.39817938 16.79713788
O 9.06924524 1.76790779 16.78449769
O 9.08813229 9.07604168 3.31717947
O 12.98249782 11.80219015 1.06896318
O 14.28503900 12.69224240 3.31534208
O 12.96912238 11.80261173 5.55277921
O 10.37041307 8.15618218 5.54545729
O 10.38416552 12.73374200 5.56900223
O 12.96204349 9.05807135 1.10975942
O 12.94674179 9.06381296 5.54457710
O 9.17770455 11.79597408 7.77257027
O 9.09433448 11.81762622 3.34588598
O 10.39930065 12.73309946 1.09221287
O 10.38033733 8.13730773 1.09903373
O 14.26345283 8.16143159 3.33797259
O 14.16528206 8.12484959 7.77719710
O 14.19143447 12.73114637 7.83787950
O 9.14368354 9.04390315 7.77784085
O 1.30099503 9.08718356 3.30177358
O 5.19046009 11.80543117 1.09344792
O 6.47681357 12.69441469 3.36878353
O 5.20149012 11.82449306 5.71677647
O 2.59920189 8.12884158 5.53375520
O 2.62345829 12.69916945 5.59402039
O 5.21425995 9.06679380 1.07106355
O 5.14091139 9.09275731 5.56596830
O 1.27804880 11.82081130 7.79068983
O 1.34990040 11.82424478 3.34131868
O 2.60306029 12.74576335 1.07750037
O 2.63379082 8.15233656 1.09673340
O 6.48965598 8.16594417 3.32770379
O 6.60480595 8.15571415 7.73035412
O 6.45697878 12.72659920 7.89964682
O 1.21331659 9.10633305 7.70966479
O 1.31205113 1.74983810 3.36357598
O 5.23065020 4.51563562 1.09584566
O 6.49323590 5.42648884 3.36643210
O 5.19105671 4.46135870 5.57979026
O 2.61494514 0.82899034 5.56751222
O 2.61032729 5.40410731 5.57045751
O 5.21555092 1.77032898 1.08180328
O 5.19819104 1.71738135 5.61531822
O 1.29935321 4.47738230 7.80707810
O 1.30084066 4.48605620 3.31564854
O 2.63152735 5.40792466 1.11082156
O 2.62033406 0.88351152 1.11207371
O 6.50067433 0.84443881 3.33916047
O 6.46092013 0.77922516 7.82054388
O 6.50314167 5.38150463 7.83230808
O 1.27779723 1.75524897 7.78944663
O 9.08063466 1.76965824 3.30242923
O 12.96321832 4.49189521 1.09921951
O 14.23836863 5.41683016 3.33660827
O 12.96786312 4.50831458 5.58995645
O 10.37914962 0.85476729 5.54970314
O 10.37097012 5.40092476 5.57678452
O 12.98260862 1.75640022 1.05943027
O 12.95243835 1.77220805 5.56658026
O 9.08671782 4.51331697 7.81659581
O 9.07367022 4.51437496 3.34299364
O 10.38241546 5.39840654 1.11871027
O 10.38783787 0.87877723 1.06780782
O 14.24618249 0.83166757 3.33133799
O 14.24688432 0.87229227 7.82650530
O 14.24950799 5.37797639 7.83002728
O 9.09755572 1.75917415 7.82381492
O 1.31870989 1.70731996 12.32771135
O 5.19043001 4.50589954 10.06213424
O 6.50805261 5.44854424 12.29153729
O 5.23185528 4.53632402 14.53245242
O 2.64661242 0.84672009 14.56830918
O 2.62685639 5.39171380 14.54246765
O 5.18974924 1.76360822 10.05470280
O 5.21322251 1.78317108 14.55491890
O 1.32823455 4.51148159 16.81228183
O 1.26690187 4.44289549 12.34762639
O 2.57232794 5.28795219 10.04329639
O 2.59466636 0.87606965 10.08359419
O 6.47850646 0.92349695 12.34074118
O 6.49132488 0.84227229 16.77271062
O 6.50553801 5.45360857 16.80693037
O 1.33663427 1.76850165 16.80674528
O 9.14289980 9.06063350 12.34665986
O 12.93203598 11.79902960 10.08403925
O 14.21551643 12.71722591 12.32373781
O 12.92884357 11.80052113 14.56516477
O 10.39460769 8.16531106 14.56411025
O 10.35538301 12.72705861 14.58089639
O 12.95741622 9.05743637 10.06192409
O 12.98418606 9.06753264 14.55927563
O 9.05947893 11.81657638 16.83176291
O 9.03616678 11.79409169 12.28787437
O 10.36199716 12.70177273 10.09826981
O 10.37539260 8.16528954 10.07834108
O 14.22135868 8.14073289 12.32220363
O 14.27101558 8.14258126 16.81698011
O 14.27930846 12.71331650 16.76794290
O 9.10445608 9.07142766 16.78967453
O 1.27575980 9.12705012 12.35716098
O 5.55687778 11.96902062 10.07843488
O 6.51677923 12.64689312 12.25492284
O 5.26610710 11.81316572 14.46099875
O 2.61727694 8.15861888 14.56117462
O 2.63575013 12.70307947 14.53898973
O 5.89221028 9.39505673 10.24901700
O 5.22340941 9.08767904 14.58512053
O 1.33681353 11.81363619 16.76270670
O 1.30006684 11.83782768 12.34113906
O 2.55064506 12.82296596 10.06578322
O 2.21484758 7.88140279 10.01542432
O 6.61868141 8.13354696 12.36027435
O 6.50688616 8.18817332 16.78337384
O 6.47512246 12.69257729 16.73543332
O 1.31917761 9.07030080 16.81614232
H 9.55036392 1.48335560 11.51071320
H 9.10738456 2.75015064 12.28338563
H 12.97935742 3.52468549 10.10563632
H 13.42636895 4.79047618 10.87216993
H 15.16051204 5.05909683 12.34326913
H 13.81777260 5.07778193 13.11002530
H 12.02694320 4.80475026 14.56025234
H 12.91630422 3.53615501 14.55233471
H 11.26576488 1.19286747 14.52574768
H 9.92970200 1.20331826 13.74748647
H 9.90588265 5.14253838 15.35791775
H 10.35988865 6.39996753 14.57623282
H 13.44572135 1.42882426 9.31087069
H 13.44278251 1.41218150 10.85785952
H 13.43840583 1.43562442 15.30666176
H 13.43574676 1.43376447 13.76320196
H 9.54676233 4.78950846 17.61386445
H 9.08421419 3.54670945 16.81674217
H 9.49518532 4.85958418 13.10290313
H 8.16740409 4.85839347 12.30765512
H 9.94063949 5.08483963 10.85944135
H 11.28136749 5.07542961 10.08978425
H 9.93746493 1.18528463 9.27226661
H 11.27530114 1.18055487 10.04988461
H 15.19170795 1.12036298 12.32273373
H 14.27173458 14.47723574 12.32269806
H 14.30437249 14.49110233 16.76926361
H 15.20174270 1.14869546 16.77692172
H 13.78596860 5.06516054 17.56810117
H 13.78352197 5.07319524 16.02256479
H 9.50169409 1.44855624 15.98412262
H 8.16722390 1.42888367 16.76621891
H 9.53394508 8.76789816 4.11485576
H 9.09970391 10.03866144 3.34908374
H 12.08099350 12.14158939 1.05714650
H 13.41518117 12.13015222 0.27349398
H 15.19555901 12.37729649 3.30532149
H 13.85898155 12.35952711 2.51894461
H 13.43768936 12.09100756 4.76368118
H 12.97374079 10.83950714 5.54113976
H 9.93251774 8.45618999 6.35439795
H 10.35779081 7.19451059 5.56958565
H 9.95836485 12.39487131 6.37057663
H 11.28751469 12.40293438 5.57985009
H 13.42651068 8.76891285 1.90319391
H 12.97888935 10.02078397 1.11140790
H 12.03819333 8.74144671 5.54744999
H 13.35741378 8.72223080 6.34830908
H 9.57838978 12.08940516 8.59552417
H 9.15696579 10.83473039 7.80171356
H 9.55950079 12.14770368 4.12368224
H 9.56534944 12.15106835 2.57649339
H 9.91836260 12.42679163 0.31506854
H 10.38089694 13.69506262 1.06603045
H 11.28347929 8.47048537 1.12468454
H 9.93843576 8.48254781 1.88334488
H 13.82414905 8.49171554 4.13066598
H 15.16579338 8.49912364 3.35222721
H 13.75179781 8.43625308 8.58953297
H 14.19029089 7.16413805 7.82620975
H 13.75660878 12.43477446 7.03284788
H 14.19862975 13.69331784 7.81515524
H 8.22801635 8.73242886 7.78102862
H 9.54395579 8.73337148 8.59557540
H 1.33265247 10.04988343 3.29487201
H 1.77142018 8.78531412 2.51794804
H 4.28985784 12.14305717 1.11580013
H 5.62750175 12.12482211 1.89016248
H 6.50619069 13.65595817 3.35992387
H 7.39150021 12.39702760 3.36043738
H 5.65752622 12.14530157 6.51691323
H 5.68028387 12.16173718 4.95805113
H 3.49623996 8.48448577 5.54518211
H 2.17532152 8.47721306 4.74460142
H 2.15924431 12.38515201 6.38001871
H 3.53174780 12.37940859 5.66474481
H 5.67366432 8.78136678 0.27269215
H 5.21148231 10.02992402 1.06112601
H 5.17731352 10.05543177 5.61352266
H 5.62088510 8.82752178 4.77791500
H 1.24915784 10.85719967 7.77648059
H 0.36651680 12.12138978 7.81165853
H 1.81434593 12.16897361 2.57220722
H 1.82241645 12.13483926 4.12363780
H 2.59382026 13.70807870 1.05645581
H 2.15501604 12.44179260 0.28096117
H 2.65807234 7.19007552 1.10928754
H 3.54935383 8.45294782 1.08823269
H 7.39407372 8.49441348 3.30976972
H 6.06258678 8.48680380 2.52688854
H 6.52604643 7.20072454 7.76688992
H 6.06656320 8.45477529 6.99531014
H 7.35363183 12.40185266 7.86867276
H 6.07176303 12.41245307 8.81065569
H 1.68396023 8.74920425 6.95201458
H 0.32461396 8.74407182 7.69076843
H 0.41196359 1.40992768 3.37465709
H 1.75129483 1.41314674 4.15429862
H 5.69382768 4.84472460 1.87329424
H 5.69228486 4.86557775 0.32537293
H 6.02955369 5.11115408 4.15021539
H 6.47174556 6.38941245 3.39092797
H 4.27663262 4.76170916 5.58466973
H 5.17249861 3.49842822 5.59736859
H 3.53251575 1.12396298 5.58964824
H 2.63766658 14.46692394 5.58673469
H 2.14845892 5.10840454 4.78135033
H 2.60913980 6.36842804 5.54540604
H 5.66122877 1.45894385 0.28656493
H 5.24229093 2.73244976 1.05860431
H 5.67177404 1.39546244 4.84336312
H 5.65882269 1.36932633 6.39177446
H 1.77503268 4.76979617 8.59738464
H 1.77393389 4.82751986 7.04724233
H 1.27716447 3.52330910 3.33741723
H 0.38724345 4.78797890 3.32277217
H 3.53552768 5.07656079 1.12666612
H 2.19163942 5.06814281 1.89755302
H 2.18857171 1.19744563 1.91355860
H 3.52696838 1.20807633 1.12911178
H 6.06446248 1.17336660 2.54759461
H 7.40281559 1.17934592 3.31180155
H 6.47680312 14.40604070 7.86398345
H 7.37232371 1.07519405 7.83726437
H 6.02870919 5.04652607 7.06681155
H 6.02061567 5.07863659 8.61039820
H 1.75868612 1.44725323 7.01530974
H 1.30321842 2.71884662 7.76889264
H 9.54637381 1.48305830 2.51005928
H 9.09092458 2.73234829 3.30036601
H 12.05671573 4.81758012 1.12514373
H 13.39725851 4.82643560 1.89180910
H 13.79219464 5.12307035 4.13874708
H 14.24141255 6.37989338 3.35722567
H 12.97627600 3.54517975 5.59605191
H 13.42634153 4.79414597 6.38898556
H 10.36161974 14.49241539 5.54800526
H 9.91323473 1.14506526 4.75991069
H 9.93632451 5.08140622 6.37627552
H 11.27724543 5.07717546 5.60363144
H 13.44879968 1.46448872 0.26859178
H 12.99487111 2.71945301 1.05463968
H 12.04757574 1.44009887 5.54757791
H 13.38676369 1.43022264 4.77897687
H 9.51825056 4.84170680 8.61218442
H 8.17670268 4.83320089 7.84053975
H 9.51230007 4.83111830 4.14092884
H 8.16901619 4.84490349 3.37245662
H 10.36964926 6.36184860 1.12610575
H 9.91507690 5.11051675 1.91114306
H 9.94733411 1.20145808 0.27400904
H 11.29544990 1.19934065 1.03752060
H 13.80645416 1.13143504 2.52956488
H 14.24399676 14.47086518 3.30655959
H 13.80856674 1.20513575 7.03785862
H 15.15726643 1.19110205 7.79350053
H 15.16184356 5.06679763 7.85042799
H 13.82397738 5.05071825 8.62960208
H 9.09054634 2.72115361 7.80442714
H 9.54276970 1.46875801 7.02305200
H 1.80680372 1.38473191 13.09184972
H 1.79026186 1.40424218 11.54057824
H 5.17469173 3.54270139 10.05857134
H 4.27015368 4.79492644 10.06281241
H 6.03652655 5.14922752 11.50724096
H 6.51158987 6.41730944 12.26782833
H 5.70139909 4.87328903 15.30051163
H 5.68836661 4.87490348 13.75222659
H 2.21123304 1.18105480 15.35764840
H 3.54792504 1.18827015 14.57928240
H 3.53862729 5.08134465 14.55419176
H 2.20675881 5.06397257 15.34227506
H 4.28796946 1.42525172 10.05399717
H 5.61858927 1.39664300 9.27421609
H 5.23046615 2.74487290 14.52958298
H 5.66545806 1.48220313 13.75362700
H 0.42394947 4.84062690 16.82153080
H 1.76027147 4.84907234 17.60355268
H 1.29675320 3.48056456 12.37117130
H 1.76045315 4.75736601 13.11129597
H 2.12025793 4.98384439 10.83322188
H 2.46683371 6.25599574 10.03993632
H 2.57900588 14.50699444 10.06082599
H 2.13778445 1.17257061 9.29332015
H 6.05020171 1.21131447 11.52840486
H 7.38838534 1.22644534 12.29939660
H 6.47057927 14.48198332 16.74209334
H 6.03706519 1.15393670 15.98044287
H 6.52871626 6.41720419 16.79157144
H 7.41914187 5.15064049 16.80675980
H 1.78778248 1.48038506 17.60725520
H 1.33746056 2.73134145 16.82308534
H 8.23088762 8.73447536 12.36604365
H 9.08228193 10.02258473 12.31092840
H 12.02521336 12.12829220 10.07408389
H 13.35783753 12.13667888 9.28902031
H 13.74377550 12.38313616 13.09301870
H 13.75392260 12.38483372 11.54613094
H 12.91507256 10.83763540 14.55945920
H 12.01236068 12.09896800 14.57185779
H 11.30213182 8.48487836 14.54186794
H 9.96028359 8.50455164 13.76854702
H 9.89332470 12.43846338 15.37338835
H 10.34456457 13.68886698 14.58545925
H 12.93997058 10.02062317 10.06434246
H 12.03820349 8.76698898 10.06894526
H 13.44062541 8.73073215 13.77874736
H 13.45734616 8.73741513 15.32846183
H 9.05715261 10.85403913 16.81285783
H 8.13820759 12.09780857 16.79969812
H 9.44350478 12.13218813 13.08649103
H 8.11255089 12.10906983 12.28147767
H 10.33402448 13.66221750 10.11345003
H 9.87294430 12.39689418 10.87349602
H 10.36376930 7.20386753 10.09776905
H 9.92010919 8.46615130 10.87402828
H 13.78434822 8.44769538 11.52070391
H 14.23218844 7.17940281 12.28300976
H 13.80077494 8.44077096 17.60223733
H 14.24989058 7.18013925 16.82780915
H 13.83161124 12.38440666 15.98033443
H 15.18288112 12.37960593 16.73751628
H 9.56548834 8.72899571 17.56155888
H 9.57557469 8.74733850 16.01313264
H 0.38723360 8.76464444 12.37876736
H 1.74101182 8.77568553 13.12076096
H 4.63007010 12.16401057 10.09031481
H 5.74291915 10.36389992 10.16120155
H 6.50374781 13.60069516 12.26551679
H 6.10360034 12.36954987 11.34477108
H 4.36274736 12.13755684 14.43233836
H 5.69849024 12.10776887 13.63747645
H 2.61471212 7.19717396 14.56464457
H 2.16317202 8.44225809 15.35928546
H 2.16462947 12.41881439 13.74568004
H 2.63707328 13.66482587 14.52931864
H 6.03102627 9.02920569 9.38424379
H 5.21281975 10.05008172 14.51962034
H 4.30920572 8.79346957 14.55295117
H 1.80400335 12.10280579 15.96865789
H 1.35064045 10.85095831 16.75998462
H 1.28839867 10.87312715 12.33566692
H 0.38296932 12.12266585 12.33602946
H 2.12780422 12.44196834 10.83686483
H 2.13152510 12.43119133 9.29895332
H 1.92327756 8.37118736 9.24956566
H 1.97639710 8.38185242 10.79201995
H 6.10930899 8.46402298 13.10138337
H 6.29121091 8.60408514 11.55944555
H 7.41260844 8.51249116 16.75660317
H 6.06375764 8.52079621 15.99076224
H 5.99220087 12.36374500 17.49793245
H 6.03108946 12.36589042 15.94099827
H 1.76094143 8.73706847 17.60368897
H 0.41606990 8.73827991 16.84006553
