383

O 9.11603496 1.76652138 12.26104229
O 13.01230592 4.52889910 10.07822878
O 14.24082455 5.50352957 12.28011886
O 12.97710653 4.52526385 14.49377189
O 10.38422949 0.86347955 14.53743331
O 10.37747170 5.42452103 14.51266981
O 12.98940895 1.78214449 10.09077828
O 12.98813932 1.78828207 14.55288598
O 9.16436381 4.51259107 16.79464149
O 9.15572474 4.52303111 12.23582853
O 10.44232719 5.42514763 10.00240904
O 10.42153465 0.82660795 10.03450516
O 14.29819537 0.85538159 12.29859326
O 14.24901164 0.84400310 16.79597038
O 14.20682755 5.38808621 16.79644193
O 9.07676994 1.75999449 16.78865749
O 9.06737221 9.04031367 3.37007380
O 12.99623461 11.78848614 1.08110582
O 14.28737765 12.72204957 3.29647252
O 12.98757380 11.84495985 5.55098789
O 10.38849761 8.17523521 5.61071534
O 10.38938032 12.72848168 5.57381311
O 12.94865576 9.05379119 1.06741436
O 12.97276344 9.09811538 5.54888949
O 9.14425973 11.82846255 7.83368491
O 9.10887142 11.77800705 3.34522596
O 10.41332818 12.72407866 1.12159012
O 10.35028230 8.16098720 1.10776743
O 14.26267600 8.16962370 3.29782280
O 14.25047679 8.13693567 7.80497574
O 14.27454838 12.72971922 7.82364669
O 9.10840717 9.08693750 7.84404965
O 1.33159191 9.06096300 3.29319985
O 5.21005152 11.80116533 1.11140445
O 6.51916856 12.70557600 3.36064460
O 5.23378086 11.80522681 5.60516673
O 2.62146431 8.15650621 5.54019135
O 2.65142394 12.70811043 5.61807825
O 5.20902949 9.05834978 1.04908687
O 5.21158345 9.06412074 5.54867616
O 1.33044325 11.79701322 7.81840933
O 1.34113792 11.79376329 3.37522276
O 2.63458408 12.71177659 1.13326313
O 2.60224887 8.17064899 1.04929992
O 6.47684909 8.14637571 3.30034117
O 6.54352942 8.13058779 7.77534529
O 6.55519037 12.74779990 7.81274940
O 1.29851707 9.07621965 7.77805404
O 1.30300579 1.78930528 3.37458149
O 5.20412310 4.50233545 1.12075645
O 6.47677185 5.40653348 3.33715488
O 5.19443839 4.49289159 5.57861217
O 2.61830532 0.86134523 5.59696406
O 2.63189161 5.42834764 5.58598954
O 5.21143934 1.75353126 1.09054388
O 5.20299182 1.75865274 5.59337599
O 1.33657643 4.48051527 7.77772603
O 1.32713482 4.51672475 3.36429573
O 2.62043919 5.43191027 1.16292480
O 2.62259939 0.84817489 1.14526813
O 6.49247410 0.84616907 3.35374733
O 6.50861801 0.87604971 7.83786689
O 6.50570958 5.37778325 7.83347058
O 1.33355510 1.72986111 7.84251628
O 9.05701608 1.78360462 3.35365378
O 12.96089155 4.51605196 1.09589833
O 14.28004407 5.42628562 3.33676927
O 12.96381761 4.49738645 5.56343252
O 10.36427958 0.86553346 5.56927472
O 10.37621748 5.43239433 5.56157946
O 12.93975851 1.78177741 1.08820470
O 12.95911610 1.75326525 5.57273043
O 9.09427564 4.49531335 7.78356393
O 9.08020033 4.51756199 3.32334926
O 10.38378518 5.42309018 1.09926250
O 10.35159217 0.86183207 1.11325847
O 14.24217796 0.86125402 3.31992946
O 14.25499946 0.87438058 7.84021195
O 14.29561486 5.40689044 7.80125972
O 9.09711020 1.75055135 7.82535134
O 1.32017731 1.77210038 12.29812940
O 5.20593923 4.50534872 10.06057478
O 6.54580687 5.42492757 12.23765573
O 5.68511752 4.37232597 14.48332859
O 2.60279376 0.80674076 14.52479877
O 1.94985866 5.63388714 14.43873676
O 5.18273200 1.78141754 10.02858931
O 5.22286667 1.61406127 14.56575204
O 1.21565573 4.47092681 16.91554292
O 1.22268178 4.46155612 12.22569551
O 2.64931604 5.40602858 10.04572653
O 2.59985175 0.83166667 10.07956591
O 6.51849996 0.83940118 12.24507268
O 6.49667670 0.82583397 16.80715869
O 6.56317443 5.44582422 16.93522969
O 1.33302138 1.69887786 16.80526210
O 9.06178642 9.03556433 12.31660813
O 12.99758506 11.81848677 10.09756228
O 14.29509906 12.67678135 12.31635712
O 12.96504691 11.80983045 14.52756566
O 10.39113643 8.15515203 14.54168209
O 10.39758520 12.71854565 14.53624234
O 12.98103050 9.06965924 10.00959467
O 12.96361708 9.03672986 14.52071131
O 9.11227953 11.84617615 16.79520630
O 9.09600429 11.77102721 12.30204572
O 10.42155514 12.68955585 10.08600767
O 10.35424939 8.16617687 10.07474203
O 14.35353641 8.20300122 12.40887065
O 14.17812442 8.13674078 16.79136383
O 14.26878688 12.70204141 16.79052684
O 9.10356052 9.10082544 16.78025906
O 1.12472011 9.20575034 12.51111956
O 5.24857544 11.81268912 10.05059956
O 6.51923462 12.71110133 12.30695232
O 5.15301142 11.85401692 14.50421066
O 2.35893277 8.34475333 14.55235013
O 2.54543839 12.67695079 14.52483895
O 5.24685628 9.07162301 10.03829613
O 5.18268290 9.07472924 14.54705355
O 1.29645416 11.78495583 16.83320154
O 1.23087909 11.69746053 12.41267079
O 2.62560360 12.70714064 10.09016694
O 2.64224314 8.08777750 10.02541237
O 6.49498097 8.13975305 12.29709404
O 6.48757773 8.19440967 16.75403168
O 6.48894016 12.69199280 16.79498886
O 1.25792086 9.07878018 16.82215876
H 9.57000415 1.44469799 13.04615826
H 9.59380886 1.41856408 11.50183670
H 13.45264122 4.90710622 10.85288326
H 13.49188891 4.84360148 9.30645993
H 14.32154772 6.46876888 12.33300445
H 15.14029493 5.15482536 12.24855784
H 12.07427505 4.85791628 14.47508470
H 13.42014722 4.88288569 13.71347097
H 10.38001660 14.50270104 14.55175443
H 9.91976165 1.15349900 15.32886270
H 10.36334379 6.38793234 14.50772090
H 9.92946014 5.13401296 13.71086700
H 13.45783697 1.47078314 10.87506735
H 13.01069855 2.74499925 10.12181660
H 12.96655228 2.75160232 14.52098178
H 12.07402165 1.48945647 14.53958375
H 9.58223103 4.80740289 15.97786025
H 9.13265777 3.55152021 16.76238859
H 9.62441407 4.80752599 11.44493911
H 9.14978048 3.56141888 12.22661077
H 10.00637335 5.08938545 9.21413685
H 11.35149507 5.10332035 9.99148179
H 11.33270570 1.13961955 10.05384941
H 10.45283188 14.46599790 10.05234635
H 13.86507100 1.18057889 13.09280917
H 15.20291779 1.19182342 12.32029257
H 13.77479327 1.18575196 17.55967604
H 13.80051258 1.18938332 16.01608930
H 13.80284618 5.07248224 15.98109623
H 15.11239012 5.05381109 16.80896049
H 8.17033367 1.43313538 16.80480334
H 9.50172812 1.43417654 17.58772665
H 9.49696729 8.71362575 4.16771248
H 8.16189821 8.71178422 3.37488527
H 13.44222295 12.09132400 0.28085438
H 12.99069798 10.82519833 1.04953511
H 13.86553731 12.37043014 2.50405891
H 15.19038458 12.38797457 3.30547056
H 13.42031761 12.17136253 4.75533634
H 12.08191947 12.17090742 5.53354771
H 11.29091875 8.51172423 5.60478994
H 9.96895005 8.50897230 6.41211088
H 9.95355264 12.42832070 6.37956041
H 10.36113725 13.69113944 5.58606637
H 13.36377560 8.71398341 0.26306442
H 12.03961381 8.73780279 1.06359727
H 13.42733374 8.79324817 4.75693189
H 12.99702916 10.06030833 5.52965013
H 9.60094019 12.11177379 8.63432188
H 9.13170366 10.86523930 7.85338831
H 9.55994990 12.08226135 4.14012166
H 9.10813275 10.81506200 3.37341519
H 11.31616585 12.38846144 1.12968850
H 9.97659536 12.36902998 1.90263892
H 10.34642626 7.19777865 1.11612146
H 9.89765060 8.44614197 1.90753529
H 13.79753800 8.45395727 2.50291702
H 14.25372281 7.20681365 3.29596791
H 13.79102236 8.47151701 8.58669071
H 13.78616256 8.48666854 7.03984948
H 13.81799107 12.43815186 7.02893911
H 14.25830731 13.69190384 7.81270067
H 9.52670381 8.75120633 8.64671076
H 8.20778886 8.74469931 7.83763355
H 1.76001730 8.74134933 2.49014326
H 0.42529521 8.73694032 3.27453103
H 4.30588611 12.13476181 1.13065782
H 5.64453988 12.12953635 1.90402794
H 7.42156314 12.37061345 3.37220704
H 6.08811299 12.37364569 4.15567705
H 5.67610876 12.14134879 6.39225078
H 4.32805723 12.13379724 5.63248298
H 2.19488536 8.47722417 4.73909635
H 3.52375835 8.49202403 5.53163684
H 2.17892874 12.40975301 6.40516878
H 2.62663552 13.67017850 5.62641775
H 5.66359399 8.77607631 0.24570099
H 5.22075281 10.02068722 1.05047227
H 5.23655018 10.02650333 5.55464055
H 5.65757863 8.77472560 4.74585815
H 0.41884160 12.10393083 7.82760932
H 1.29690784 10.83305347 7.81409274
H 1.79870311 12.08073528 4.17197504
H 1.35428144 10.83031324 3.37150102
H 2.17832562 12.41278690 1.92606995
H 2.61488453 13.67441839 1.14937692
H 2.15327389 8.48494875 0.25262921
H 3.50528479 8.50083360 1.01380527
H 6.45773290 7.18327413 3.29076023
H 6.03496773 8.44222803 2.49617181
H 6.06966722 8.42192474 6.99077804
H 6.51137972 7.16847861 7.78149842
H 6.56578745 13.71098522 7.81883498
H 7.47187715 12.45443758 7.81966452
H 1.73120928 8.73852238 6.98967887
H 0.40183495 8.72739089 7.78013713
H 1.28550841 2.75317405 3.36808911
H 0.38834577 1.49175496 3.34857573
H 5.68347189 4.82035064 0.34401436
H 5.20799339 3.54115306 1.07743179
H 7.38563523 5.09119768 3.31233804
H 6.04216843 5.06318687 2.54620594
H 4.29498102 4.83951378 5.56497659
H 5.63119883 4.82349012 4.78642380
H 2.15217122 1.17865044 6.37912387
H 2.13723023 1.19449596 4.83226821
H 2.61500138 6.39140891 5.60631081
H 2.17092813 5.11744018 6.37433969
H 5.68452417 1.42362181 1.86011356
H 5.67042408 1.41666366 0.31194750
H 4.28626840 1.46179697 5.59480376
H 5.17948476 2.72216390 5.58252290
H 1.31676322 3.51907331 7.80807595
H 0.42170177 4.78048492 7.79443187
H 1.79893187 4.85197679 2.59163982
H 1.79752275 4.84720243 4.13761343
H 3.53473525 5.13312370 1.12882037
H 2.63706603 6.39349457 1.10930629
H 2.19011390 1.20051124 1.92892537
H 3.52626121 1.18124094 1.14546038
H 6.02957914 1.14386142 4.14440029
H 6.49582620 14.48557387 3.37875178
H 6.04136724 1.19674912 7.05939981
H 6.02211037 1.20453722 8.60437283
H 6.02815712 5.04945086 7.06559237
H 6.02879754 5.06829171 8.61429584
H 0.42537796 1.41263581 7.86656580
H 1.76446784 1.40188129 8.64164706
H 9.04191177 2.74688466 3.33666597
H 8.14085156 1.48538879 3.35226693
H 13.44705133 4.84685407 1.85724921
H 13.41513717 4.83629921 0.30564853
H 15.18735841 5.10321108 3.36778419
H 13.83705583 5.08962144 4.12220576
H 12.05068260 4.80189103 5.56153618
H 12.93691169 3.53493058 5.56382104
H 9.90441303 1.19081269 6.35115355
H 9.88645744 1.20418541 4.80414410
H 10.37681034 6.39447995 5.60418315
H 9.91603516 5.12104040 6.34925144
H 12.92999572 2.74543731 1.09072894
H 12.02192023 1.49240048 1.09541110
H 13.39460873 1.42288156 4.77955851
H 12.05511631 1.42254639 5.54994859
H 9.07566643 3.53304205 7.80164006
H 8.17634382 4.78842755 7.81471988
H 9.54655217 4.85558288 4.09522721
H 9.55192811 4.84154056 2.54762342
H 11.29356634 5.10594032 1.08758381
H 9.96850399 5.09087076 0.29406571
H 10.36658469 14.50152997 1.14239470
H 9.89544601 1.15922502 1.90685454
H 13.78578199 1.16384058 2.52725872
H 14.25519326 14.50097531 3.28334308
H 13.79262224 1.20966884 8.61657322
H 13.78613676 1.20226964 7.06698955
H 14.27567366 6.37069705 7.78848218
H 13.81936830 5.11047353 7.02044713
H 8.18862193 1.43106238 7.86065870
H 9.54512418 1.41529782 8.60995340
H 1.78397083 1.47983598 13.08934043
H 1.32311784 2.74043470 12.30309858
H 4.30254007 4.84608242 10.08646012
H 5.65195783 4.83153034 10.85312653
H 7.45814522 5.12599115 12.21109378
H 6.18670312 5.05500898 13.06170504
H 5.90538822 4.71314949 15.34627064
H 5.46117092 3.44893813 14.57299670
H 2.55463839 14.44539512 14.52916151
H 2.15958370 1.10835085 15.32304860
H 1.77702743 5.28741933 15.30831711
H 4.27107602 1.47180752 10.05681556
H 5.15534404 2.74588406 10.05314571
H 5.64220104 1.33258443 13.74904895
H 4.30179485 1.33782020 14.52336430
H 1.72179029 4.77325753 17.67249332
H 1.29725895 3.51504801 16.88224513
H 1.74202137 4.80802281 11.49603241
H 1.55240597 4.88831592 13.03695498
H 2.63035305 6.37427320 10.03395224
H 2.19501293 5.11216978 9.25374971
H 2.14751225 1.14059109 10.87367425
H 2.59925628 14.46918887 10.11160246
H 6.06980466 1.18871788 11.46887783
H 7.41403365 1.19040610 12.23550618
H 6.03752549 1.10195609 16.00231312
H 6.49197605 14.46497959 16.79693832
H 7.48340604 5.17416221 16.89610214
H 6.54476003 6.40424758 16.85614697
H 1.76052754 1.37556456 17.60292886
H 0.42408946 1.38546108 16.82698318
H 9.50190741 8.71758306 13.11216524
H 8.15638023 8.70065852 12.33676810
H 13.46486452 12.14429816 9.32338551
H 13.48705130 12.12485936 10.87260011
H 14.34736089 13.63544490 12.31726664
H 15.20742345 12.33446933 12.34663279
H 13.44222247 12.12390501 15.30105741
H 13.45313907 12.12507802 13.75665576
H 9.97530458 8.49817789 15.33824764
H 11.30198652 8.47714766 14.53610953
H 9.95490851 12.37324890 13.75410231
H 11.30461865 12.38986506 14.51047262
H 12.97168419 10.03018604 10.04906160
H 12.06637584 8.78194882 10.05473193
H 12.98421973 9.99696741 14.50601289
H 13.47173085 8.74025082 13.74402402
H 9.57897711 12.16614764 16.01518906
H 9.58398840 12.18010109 17.56362684
H 8.18432932 12.08281168 12.30939401
H 9.05829146 10.80786464 12.30606025
H 11.33097220 12.36851992 10.12007161
H 9.97494808 12.35788980 10.87284878
H 9.89841841 8.44076433 10.87832419
H 10.37684091 7.20404753 10.07832285
H 13.94704304 8.51516943 11.60428953
H 15.28885933 8.60420019 12.44187115
H 13.75815036 8.43695997 15.97579911
H 14.19176985 7.17485297 16.75929618
H 14.28590577 13.66437413 16.78653528
H 15.18662309 12.40445445 16.80048818
H 9.12505638 10.06264943 16.80498339
H 9.53495228 8.79286326 17.58288120
H 1.59131798 8.84982348 11.76666615
H 1.89049905 8.70254849 13.73489669
H 5.72142130 12.15923737 9.28906576
H 5.70712734 12.13495205 10.83371132
H 6.02632848 12.43332589 13.08804948
H 6.51160096 13.67429238 12.30245438
H 5.57487295 12.16417779 15.30866715
H 4.23521126 12.15172987 14.52720255
H 2.11442289 6.57727256 14.51080240
H 3.28218849 8.57293035 14.48682155
H 2.06798114 12.30441889 13.76329444
H 2.10281362 12.34543595 15.30998730
H 5.25828050 10.03366067 10.02669500
H 5.70226060 8.77615342 9.24673827
H 5.18006801 10.03318422 14.49692523
H 5.61272257 8.75647766 13.74874102
H 1.77132012 12.07627796 17.61506463
H 1.29054779 10.81862102 16.84803759
H 1.70551940 11.95698997 11.62669967
H 1.19895988 10.67184714 12.42991147
H 3.52678294 12.37580174 10.06840687
H 2.18883953 12.36478853 9.30634480
H 3.52663880 8.45645586 10.03457503
H 2.19451199 8.46500131 9.26824386
H 6.47916145 7.17464553 12.27583176
H 6.04440168 8.44167227 11.50210247
H 6.03658079 8.50181815 15.95567877
H 7.38657096 8.53175959 16.71910741
H 6.06371749 12.35872655 17.59101454
H 7.39543711 12.37078405 16.80374983
H 0.35702224 8.74647383 16.80500046
H 1.66541159 8.80826286 15.97588983
