383

O 9.08162907 1.73756075 12.31403193
O 12.97129092 4.51168307 9.94937543
O 14.40842926 5.64900699 11.80801254
O 12.76523200 4.21587424 14.95327854
O 10.32905857 0.76975603 14.56019111
O 10.28684817 5.46505180 14.55952400
O 12.96996856 1.79399088 10.08361745
O 12.96351616 1.63292920 14.60826720
O 9.05740930 4.49581392 16.84742947
O 9.09101403 4.49153502 12.32369928
O 10.34304672 5.40580708 10.05972654
O 10.39515532 0.87285812 10.05789622
O 14.24761471 0.89029273 12.31533225
O 14.26213834 0.82819967 16.82949623
O 14.31736882 5.48153747 16.91360341
O 9.09879784 1.74984214 16.79161888
O 9.08241918 9.04457329 3.34876565
O 12.96043697 11.78653983 1.11828957
O 14.29620670 12.71599230 3.33220865
O 12.99383609 11.81555015 5.57117653
O 10.36808423 8.12978020 5.58502216
O 10.40389378 12.72777109 5.58471494
O 12.99045424 9.05220828 1.04468507
O 12.96890310 9.08110251 5.50889145
O 9.07505224 11.79445461 7.80778516
O 9.10443464 11.78709254 3.36175642
O 10.38448631 12.70565998 1.11407355
O 10.38529892 8.15092654 1.07932515
O 14.27046853 8.15202668 3.28903583
O 14.28558990 8.15719123 7.76604094
O 14.29182864 12.73660253 7.81398284
O 9.02709717 9.04579258 7.80405365
O 1.32586163 9.08423145 3.37486227
O 5.21351417 11.79248679 1.09569223
O 6.51628631 12.71075508 3.33490193
O 5.17930298 11.81382977 5.57114557
O 2.56105307 8.16643325 5.63728832
O 2.63191181 12.76672453 5.56136156
O 5.21498739 9.05876776 1.10016003
O 5.14150388 9.07574103 5.57555148
O 1.33890297 11.83751715 7.84142871
O 1.35026564 11.82316921 3.31232446
O 2.62159842 12.69742710 1.04857521
O 2.62043376 8.18135190 1.10243444
O 6.47469481 8.16438015 3.36503211
O 6.42032155 8.18316914 7.84377578
O 6.48186245 12.67354429 7.83316338
O 1.32424405 9.06778777 7.87839584
O 1.33280802 1.80151111 3.35035703
O 5.18046124 4.50001274 1.12119746
O 6.50867572 5.42332014 3.33178770
O 5.21417343 4.49379282 5.56723985
O 2.60678237 0.90164544 5.60734242
O 2.62033317 5.42042395 5.57746159
O 5.19613045 1.74914837 1.11396025
O 5.21851291 1.74627732 5.59566328
O 1.29985455 4.50414774 7.82652824
O 1.33724690 4.53334780 3.31383583
O 2.61093188 5.43735749 1.07879909
O 2.61134594 0.83846133 1.12002910
O 6.51923957 0.85301854 3.35166477
O 6.50114848 0.80225057 7.81879687
O 6.50930437 5.44116233 7.80501287
O 1.28726471 1.77663986 7.83053827
O 9.09477705 1.78918895 3.33606426
O 12.97613701 4.46404096 1.16445364
O 14.27545244 5.41457384 3.34414139
O 12.97327834 4.49443868 5.57025442
O 10.37246261 0.86221372 5.59311660
O 10.38896451 5.38797950 5.60758510
O 12.97232842 1.72201733 1.11031169
O 12.98626920 1.74448322 5.60342413
O 9.08584395 4.49742935 7.84183041
O 9.09441393 4.52332166 3.36091584
O 10.39917830 5.40290097 1.12194858
O 10.38718283 0.84847678 1.10348469
O 14.29237106 0.85493771 3.36461344
O 14.22893162 0.86427645 7.85469670
O 14.25481130 5.42228505 7.76227803
O 9.07937375 1.76042738 7.83316239
O 1.31201112 1.77079147 12.33021978
O 5.25264736 4.48884032 10.06805885
O 6.51025729 5.41182427 12.31640110
O 5.24360946 4.48664302 14.56570149
O 2.62053207 0.78129875 14.57023122
O 2.62963829 5.38633323 14.60649692
O 5.17678325 1.73829609 10.04908839
O 5.22407247 1.74444060 14.56236236
O 1.34667962 4.48071251 16.81288065
O 1.38248387 4.46362136 12.33961212
O 2.63402654 5.42925373 10.10212144
O 2.59030936 0.86240017 10.08761946
O 6.48258048 0.85168011 12.28636907
O 6.49935873 0.88297526 16.81501277
O 6.50934216 5.41648157 16.82828338
O 1.32450055 1.72337553 16.78484142
O 9.05841765 9.07788163 12.26926234
O 12.94326134 11.84128458 10.02704989
O 14.21949941 12.73705776 12.31882109
O 12.97419674 11.81149868 14.54446454
O 10.44288180 8.21136749 14.50568542
O 10.38246284 12.63814816 14.52403597
O 12.93439901 9.14155702 9.96039055
O 13.04348335 9.04004380 14.43705256
O 9.08577139 11.79988144 16.80556345
O 9.08547759 11.82018693 12.25583335
O 10.39738791 12.73732526 10.03823386
O 10.34944651 8.14032172 10.04501142
O 14.43533840 8.38030169 12.25638342
O 14.23487101 8.18754020 16.74252631
O 14.27323690 12.71457254 16.81100409
O 9.15141999 9.06230910 16.75783970
O 1.31548326 9.22962619 12.09899674
O 5.17742918 11.77221225 10.04129571
O 6.49708365 12.71234435 12.25977754
O 5.23597641 11.81464091 14.53595492
O 2.66016490 8.06399009 14.66234511
O 2.58367415 12.64832825 14.44765753
O 5.09623554 9.05111958 10.06258091
O 5.24720783 9.06984339 14.58666164
O 1.33902283 11.84393927 16.73996193
O 1.37813739 11.71771158 12.24788128
O 2.61185772 12.68393145 10.09319610
O 2.53506153 8.29892345 10.12583285
O 6.46911651 8.16132455 12.30801542
O 6.55756674 8.15252924 16.83972051
O 6.51210497 12.74888521 16.80855234
O 1.29198861 9.10282999 16.88458220
H 9.52318671 1.42448339 11.51800753
H 8.17286024 1.42280177 12.27289058
H 12.06892023 4.82971438 10.02027119
H 13.47581041 4.93507343 10.67028368
H 15.23578573 5.25762491 12.07689351
H 11.97522818 4.71706031 14.76573050
H 13.29906288 4.71688170 15.56550537
H 10.32406473 14.40998936 14.52051433
H 9.89495105 1.08641965 13.76165488
H 10.33400276 6.42543481 14.56294439
H 9.84207029 5.19179840 15.36459870
H 12.98595619 2.76008592 10.07420400
H 13.42344200 1.51585979 10.88844947
H 12.05842034 1.31418171 14.58925646
H 12.89594480 2.59871400 14.70860083
H 9.54526302 4.78117373 17.62599741
H 9.10540209 3.53466487 16.82402637
H 9.53437296 4.80910315 13.11960967
H 9.11495093 3.53049786 12.35120292
H 9.91736889 5.10460130 10.86916108
H 10.34301984 6.36877593 10.08540359
H 10.42772852 14.51228432 10.04771912
H 11.30816567 1.18375484 10.07518939
H 15.15273872 1.21710801 12.34603255
H 13.81362206 1.19177704 13.12205602
H 13.80703034 1.12227968 16.02732813
H 15.16427535 1.15989495 16.78073322
H 13.89492896 5.12195235 17.69685648
H 15.20739241 5.11948160 16.87975027
H 9.57021762 1.41859013 17.56220856
H 9.55385071 1.40060376 16.01621703
H 9.52033210 8.69995074 4.13506465
H 8.17429260 8.72667375 3.37787330
H 12.98811040 10.82343447 1.11606980
H 13.43448636 12.08269461 1.90161314
H 15.21381721 12.42302463 3.32569382
H 14.31420523 13.67889452 3.34276426
H 12.98759334 10.85267371 5.53760177
H 13.45305958 12.11420361 4.77934680
H 10.37401815 7.16730906 5.62002151
H 9.90266565 8.43120637 6.37272456
H 11.32168734 12.43562075 5.58867474
H 10.41635763 13.69085225 5.58664428
H 13.40593292 8.74573654 0.22761241
H 12.08493906 8.72771788 1.03600916
H 13.39113595 8.73969381 4.71336046
H 12.07091702 8.73759612 5.52079114
H 9.51067667 12.13416733 7.02026497
H 8.16852944 12.11960364 7.79434393
H 9.56555521 12.08954758 4.15144120
H 9.10722636 10.82416274 3.38554335
H 11.28723612 12.36825906 1.12793536
H 9.95489168 12.36932776 1.90715898
H 9.91123989 8.48457322 1.84665480
H 9.93086232 8.48304846 0.29705174
H 13.83094473 8.43907293 2.48102058
H 14.26268219 7.18856261 3.28305714
H 15.18919887 8.49396879 7.79875954
H 13.87836413 8.50065935 6.96761576
H 13.86689912 12.39574351 7.02126099
H 15.19934876 12.41114392 7.81042413
H 9.02518933 10.00825759 7.80425926
H 8.10504544 8.76740270 7.82042861
H 1.73647478 8.75314044 4.18155391
H 0.42366835 8.74913191 3.36575100
H 5.22744056 10.82924332 1.11165399
H 5.66894929 12.09144853 1.88900892
H 6.54489470 13.67314422 3.33748441
H 7.42949829 12.40601751 3.34870001
H 4.28438158 12.17188524 5.54508930
H 5.63065099 12.13699029 4.78539417
H 2.57108949 7.20419586 5.64753100
H 2.12821804 8.45500102 6.45211296
H 2.16951331 12.46413007 4.77360531
H 2.59994883 13.72923154 5.55477940
H 5.66874871 8.72604571 0.31756195
H 4.30722807 8.73711772 1.06286801
H 4.22472055 8.77876544 5.59561162
H 5.12359283 10.03855224 5.57363871
H 1.80173264 12.14834465 8.63027995
H 1.82061591 12.16811451 7.08012751
H 1.35414718 10.85978027 3.32083092
H 1.79770039 12.09617845 2.50412169
H 3.52411476 12.36333012 1.03636969
H 2.19651711 12.39533364 0.23671074
H 2.12721809 8.52712990 0.34633670
H 2.16865880 8.49638983 1.89072146
H 6.01634946 8.49118754 2.58335867
H 5.98818233 8.49217937 4.12967195
H 5.92899741 8.48758117 8.61795652
H 5.95225883 8.51248686 7.07058834
H 6.00741138 12.33974519 8.60556972
H 6.00877100 12.35556139 7.05774855
H 1.33685597 10.02827485 7.88344400
H 1.75456683 8.78482339 8.70606411
H 1.78218890 1.47874850 2.56199690
H 1.34599894 2.76415291 3.30522564
H 5.15393188 3.53806480 1.12040353
H 4.26727135 4.80748975 1.10504326
H 6.48049923 6.38607293 3.32354196
H 6.04171573 5.12308216 2.54426998
H 5.67199441 4.78811426 4.77338749
H 5.23431094 3.53147448 5.56429275
H 2.14860289 1.24259838 4.83216530
H 2.12316371 1.21868505 6.37949314
H 3.52237743 5.08652522 5.56278192
H 2.19370833 5.10032746 4.77637382
H 5.67108178 1.44127617 0.33387518
H 5.67646208 1.42485993 1.88225516
H 5.64970128 1.40168984 6.38555893
H 4.30494542 1.44191502 5.62112308
H 0.40032128 4.84967849 7.80929314
H 1.73716435 4.83312720 7.03680764
H 1.76115785 4.87563338 2.51864117
H 0.42945688 4.85596649 3.30721088
H 2.16213459 5.12503352 0.28317944
H 2.60061762 6.40015023 1.05206734
H 3.52809938 1.13250348 1.11396007
H 2.63143334 14.47771296 1.10299469
H 6.07807764 1.17007733 4.14711314
H 7.41692633 1.20150775 3.36986270
H 6.52816833 14.44114889 7.82652391
H 7.41255189 1.11225137 7.83412554
H 6.04695192 5.13944872 7.01739278
H 6.46181989 6.40347740 7.80547078
H 0.37194036 1.47831884 7.84064809
H 1.26635813 2.74091442 7.83680089
H 9.10975379 2.75217545 3.31424569
H 9.55303359 1.48236870 2.54619274
H 12.06487472 4.77175958 1.13230513
H 12.94992661 3.50270891 1.12526887
H 13.81477503 5.08786281 4.12475347
H 13.80055067 5.06076359 2.58249292
H 12.99831807 3.53299280 5.60158717
H 13.43431923 4.81180905 6.35837382
H 9.91165910 1.19905428 4.81844279
H 9.90226764 1.19252482 6.36689497
H 11.29501689 5.05875606 5.61632221
H 9.96194613 5.05685099 6.40573483
H 13.44594239 1.40788716 0.33034603
H 13.45292190 1.40440636 1.88085008
H 12.07680702 1.43159549 5.61787441
H 13.40390869 1.41891036 6.41015839
H 9.51275759 4.83021754 8.64219361
H 8.18810380 4.84530248 7.84368459
H 8.19073688 4.85627610 3.37223536
H 9.52500902 4.83805649 4.16367257
H 9.93636947 5.12779987 1.92003324
H 10.38947331 6.36555291 1.11584708
H 10.40131621 14.48764014 1.11143129
H 11.30764584 1.13511165 1.10455153
H 13.85115181 1.17469853 4.15907408
H 15.18818553 1.20761502 3.38189319
H 13.78437240 1.16232926 8.65778706
H 14.23999115 14.50320306 7.87402209
H 13.78250105 5.11935820 8.55079021
H 14.25684615 6.38507268 7.79253185
H 9.08011321 2.72385580 7.85814608
H 9.55107957 1.46570802 8.62096781
H 1.34271558 2.73756096 12.35928896
H 1.77007185 1.45386815 13.11278578
H 5.69655911 4.79188539 9.27101277
H 5.23965134 3.52754145 10.03672473
H 6.07706094 5.08041328 11.52245444
H 7.41452585 5.08025836 12.29601256
H 5.70845539 4.82532956 15.33661624
H 5.69965161 4.82791200 13.78899194
H 2.62968246 14.42054796 14.51023812
H 3.53480991 1.07661305 14.56073465
H 2.64704068 6.35490007 14.61919495
H 3.54477169 5.09564281 14.59233384
H 5.60649516 1.38924888 9.26303143
H 4.26433519 1.42580923 10.03865704
H 5.22767583 2.70785707 14.54194463
H 5.67017691 1.45080511 13.76128123
H 1.34099516 3.51968597 16.77815933
H 1.79498038 4.78353982 16.01216498
H 1.85011981 4.81756657 11.57694810
H 1.81066177 4.82405625 13.12121363
H 2.18697829 5.10666022 9.31726643
H 3.53755275 5.11087219 10.05715196
H 2.10983857 1.18789534 9.32093142
H 2.13006757 1.19795973 10.86595641
H 6.47111676 14.49087924 12.25967989
H 6.01474731 1.15172129 11.49960875
H 7.40768406 1.20301360 16.78551419
H 6.06587145 1.19970812 16.01365191
H 6.05405370 5.08812465 17.60919559
H 7.40757787 5.06682401 16.86488069
H 1.78806832 1.40134239 17.56282525
H 1.79215249 1.37138030 16.01884913
H 9.03733265 10.03994612 12.25880805
H 8.14333798 8.77709651 12.28925876
H 13.42792805 12.14038536 9.25202545
H 12.95428203 10.87567965 9.99770803
H 14.22936600 13.69808973 12.28803550
H 13.77683329 12.43778631 11.52087520
H 13.43546244 12.15150625 13.76684472
H 13.44974471 12.13431098 15.31446029
H 9.99209083 8.52357339 13.71596781
H 11.36462456 8.49175785 14.43595972
H 11.29743313 12.33111198 14.55193257
H 9.95270973 12.32020902 15.32310059
H 12.05310007 8.76169454 9.98444773
H 13.38320959 8.76785159 9.19756126
H 13.04461340 10.00003470 14.46158729
H 13.56416519 8.79037161 13.65271135
H 8.18670370 12.14482936 16.81925350
H 9.52253317 12.13181422 17.59612007
H 9.57195714 12.15403582 11.49432706
H 9.55714387 12.11472340 13.04219433
H 9.95416112 12.39739068 9.25547584
H 11.30293107 12.40040229 10.01359843
H 9.89049989 8.48167477 10.82000803
H 9.86872224 8.46511878 9.27834144
H 14.45519469 6.58925730 11.99633696
H 13.96932978 8.67963898 11.47936175
H 13.82141832 8.44862972 15.91021706
H 14.25655809 7.22358723 16.76070980
H 13.81579785 12.40467984 17.59728851
H 14.25512704 13.67823808 16.84012672
H 9.13444318 10.02490609 16.75156390
H 9.62064360 8.78849599 15.96063275
H -0.16099084 8.72261908 12.18800233
H 1.72903769 8.87976298 12.87693862
H 4.26542474 12.08844736 10.06993273
H 5.13110525 10.80787720 10.05563253
H 6.04763795 12.36174810 11.48275342
H 7.40473568 12.39237184 12.22808686
H 5.69809477 12.13800807 13.75639248
H 5.69130023 12.17068405 15.30327239
H 3.53921869 8.44520301 14.64587296
H 2.20532996 8.44557985 15.41294605
H 3.48733787 12.32529486 14.45202046
H 2.15834249 12.28837144 13.64897312
H 4.16594974 8.76609892 10.11284625
H 5.53146911 8.72750254 10.85549610
H 5.25285767 10.03182140 14.58868525
H 5.71497693 8.78318810 15.37513515
H 0.43268442 12.16842845 16.73590008
H 1.74649984 12.12726962 15.91211663
H 0.47105873 12.01488420 12.27296396
H 1.35304205 10.69222411 12.19732911
H 2.14952562 12.34308622 10.88097535
H 2.58170839 13.64226807 10.13922776
H 2.03630934 8.66464991 10.94313244
H 2.51271460 7.34571954 10.17857441
H 6.02618175 8.45323773 13.11179053
H 6.47048850 7.19931562 12.32660984
H 7.47597044 8.43896648 16.81128065
H 6.56441313 7.18921156 16.82939354
H 6.04649463 12.43624695 17.59035238
H 6.49125097 13.71143166 16.83423360
H 1.28037748 10.06262511 16.81811710
H 0.37854806 8.80618001 16.81736094
