383

O 9.04414016 1.78193379 12.31918986
O 12.97639596 4.49713878 10.05932169
O 14.28273786 5.41210877 12.27960302
O 12.99835975 4.49140387 14.51617125
O 10.36339116 0.88449604 14.53349305
O 10.40617201 5.41481603 14.54725596
O 13.00283332 1.77492451 10.03161536
O 12.96338216 1.75791042 14.53240436
O 9.10183897 4.54252103 16.79861564
O 9.06399096 4.50803955 12.33769411
O 10.38167929 5.33931068 10.07929868
O 10.36961066 0.92612013 10.08538924
O 14.28809626 0.85828498 12.28486890
O 14.26268913 0.85043706 16.77820414
O 14.25750375 5.39337950 16.77630327
O 9.07821787 1.79469113 16.78867247
O 9.08398384 9.05321413 3.33472255
O 12.99715336 11.81319719 1.08692847
O 14.31831835 12.72174991 3.30351544
O 13.14233224 11.78664747 5.53914908
O 10.36154745 8.17581002 5.62973323
O 10.78811208 12.85030302 5.16811266
O 12.94289467 9.07339248 1.09098341
O 12.97145983 9.02021190 5.58743587
O 8.73302772 11.57167730 8.19188887
O 9.03279589 11.80950400 3.25395774
O 10.39372605 12.72245178 1.02908186
O 10.37092819 8.15510870 1.06385084
O 14.23227659 8.17840199 3.33227252
O 14.29886382 8.14955642 7.82813891
O 14.28278180 12.74419175 7.81704538
O 9.04606675 9.00189691 7.83868423
O 1.29322716 9.05163818 3.33293474
O 5.21404094 11.82436741 1.12900903
O 6.48127970 12.73629724 3.35868399
O 5.17950321 11.79011081 5.53587957
O 2.57494205 8.14096665 5.59942563
O 2.58860605 12.70077439 5.58422741
O 5.21462554 9.07723297 1.10684706
O 5.19204078 9.02408799 5.55641287
O 1.35132962 11.79189332 7.83374377
O 1.33663933 11.79447799 3.30933237
O 2.61753308 12.71915061 1.08054839
O 2.62589978 8.13326346 1.10673162
O 6.48406439 8.15320570 3.34067929
O 6.46088248 8.13741542 7.77018162
O 6.23702671 12.71520638 8.02187924
O 1.33076866 9.07591474 7.83389522
O 1.30666639 1.77235087 3.33623163
O 5.18054341 4.46928161 1.09293371
O 6.46627961 5.39823057 3.35505739
O 5.19000927 4.48805102 5.59504801
O 2.62733688 0.82205552 5.57315021
O 2.60674102 5.41264578 5.59202294
O 5.21446793 1.73867188 1.11022768
O 5.21309569 1.73087737 5.58121367
O 1.34734132 4.47355697 7.84236069
O 1.31251355 4.52638657 3.33947877
O 2.61016286 5.39374947 1.07406460
O 2.61528538 0.86508913 1.10423825
O 6.50588385 0.85695583 3.34286232
O 6.48684935 0.76255393 7.87840453
O 6.48146406 5.35976329 7.83019723
O 1.36342808 1.74101893 7.83689982
O 9.07697939 1.81113526 3.27642441
O 12.97605777 4.50920283 1.09767101
O 14.27744439 5.45510921 3.33019899
O 12.99554195 4.57979570 5.60566675
O 10.36807949 0.98328399 5.57925757
O 10.37413363 5.44285028 5.60859998
O 12.94664585 1.77197675 1.06836039
O 12.99513523 1.83595224 5.58322642
O 9.07337061 4.45064454 7.84128788
O 9.08003152 4.56313281 3.35208512
O 10.38888509 5.42066179 1.10764331
O 10.36805488 0.85380227 1.06698108
O 14.25115539 0.88853839 3.33656536
O 14.29665447 0.86400786 7.80540798
O 14.31549639 5.41008872 7.85061762
O 9.03971783 1.72602084 7.83522047
O 1.33108255 1.77808795 12.35107513
O 5.20766048 4.50563496 10.09454821
O 6.49424017 5.47826468 12.30975068
O 5.20227367 4.52944921 14.55488281
O 2.65755102 0.84420386 14.57994126
O 2.60503641 5.42231528 14.55503474
O 5.22273561 1.75363340 10.07704115
O 5.24202631 1.77318769 14.54456169
O 1.31156737 4.48476331 16.77412765
O 1.34509493 4.52810442 12.30579480
O 2.62432370 5.45248071 10.07884830
O 2.62747225 0.85009320 10.06262388
O 6.49656216 0.85830023 12.32267206
O 6.50038903 0.86640613 16.79563663
O 6.49818838 5.41206513 16.81537387
O 1.32934858 1.74220721 16.78484050
O 9.03238902 9.01191798 12.28458783
O 12.96895545 11.79448246 10.03755310
O 14.28719745 12.70122989 12.27493162
O 12.97607204 11.82122393 14.54606909
O 10.35278128 8.16877930 14.50840409
O 10.39254867 12.73292869 14.54356155
O 12.97755134 9.02949915 10.06285072
O 12.95601788 9.07688815 14.55063836
O 9.09547326 11.80280304 16.74453971
O 9.13317752 11.77513963 12.36148873
O 10.37865660 12.75923068 10.17526266
O 10.39218319 8.08676039 10.09624326
O 14.29370560 8.14243447 12.31971858
O 14.23768893 8.14286146 16.79855883
O 14.27698046 12.71815753 16.79590076
O 9.09460428 9.06819314 16.76644150
O 1.31799325 9.06773016 12.32775414
O 4.93800948 11.69143312 9.97664481
O 6.54201185 12.80006096 12.42080139
O 5.19142530 11.77428952 14.62630690
O 2.62231861 8.15264305 14.57668441
O 2.60715137 12.71816695 14.50668700
O 5.09521157 9.18145842 10.06408361
O 5.18539269 9.05812433 14.56634673
O 1.32158631 11.79573815 16.77814443
O 1.38161989 11.78293797 12.25775549
O 2.62218450 12.56901902 10.04235115
O 2.63142148 8.16787120 10.05523035
O 6.40297992 8.20827797 12.20911457
O 6.50779146 8.14967103 16.81917689
O 6.50459794 12.72652424 16.83831630
O 1.30857757 9.05366619 16.82996795
H 9.49140379 1.47219823 11.52343675
H 8.14505566 1.42944120 12.29189640
H 12.05326107 4.77427076 10.06136480
H 12.97350034 3.53293095 10.05121183
H 14.27293714 6.37591861 12.27383224
H 13.81587093 5.11952937 11.48910035
H 12.99973760 3.52809179 14.49860686
H 13.45578422 4.78945838 13.72212346
H 9.89682943 1.21353139 15.30804917
H 9.88503220 1.20975221 13.76172543
H 9.95219666 5.07782248 13.76656845
H 11.30923225 5.08403381 14.50835735
H 13.46839903 1.43691162 9.25797325
H 13.46623338 1.43681268 10.80435337
H 13.39417548 1.42180568 15.32491404
H 12.05364652 1.44114875 14.54904758
H 9.57160157 4.86387308 17.57523159
H 9.58085416 4.86036631 16.02570466
H 9.01299561 3.54508868 12.33243130
H 8.15948294 4.83892546 12.32912355
H 9.90198747 5.03390770 10.85612165
H 9.90369697 5.01570471 9.30792733
H 9.92708487 1.21068328 9.27769048
H 11.27590277 1.24177505 10.03770210
H 15.19218263 1.18894389 12.32721241
H 13.83948739 1.17946979 13.07246340
H 15.17749514 1.15119323 16.77901640
H 14.29240233 14.48930044 16.78489591
H 15.16410533 5.06808982 16.75803511
H 13.83190795 5.06387897 15.97706984
H 9.10173321 2.75642042 16.81760320
H 9.53614198 1.47987040 17.57596726
H 8.17934030 8.72526412 3.32088535
H 9.51199838 8.72149343 2.54071345
H 12.99182513 10.85120795 1.11595228
H 13.44628887 12.11641756 1.88431780
H 13.89829975 12.39357205 4.11128569
H 14.27810895 13.68153276 3.34133533
H 12.24341750 12.14669370 5.44081206
H 13.05791277 10.83075163 5.56514592
H 9.88706112 8.51955533 6.40033021
H 9.90504118 8.50560352 4.85088247
H 10.56517796 13.75810458 5.36047086
H 10.11929840 12.49850703 4.58506771
H 12.03625552 8.74742139 1.06482209
H 13.37981759 8.73597225 0.30225887
H 13.41212204 8.70051159 6.38126718
H 12.05373780 8.73049783 5.63705853
H 9.26871797 12.03356165 8.83048382
H 9.06727979 10.84926510 3.27693565
H 9.50029665 12.08775097 2.46252716
H 11.29840351 12.39534499 1.03652811
H 9.97454865 12.38741818 0.22982099
H 10.36395616 7.19247905 1.05362667
H 9.91698516 8.45161110 0.26767506
H 13.76638349 8.48744395 4.11936833
H 13.75408382 8.51539793 2.56764356
H 14.34080214 7.18819281 7.83682547
H 15.20924033 8.46860500 7.83165310
H 13.85388921 12.39423384 7.02677420
H 13.79538138 12.40122189 8.57253786
H 9.50146565 8.68756684 8.62179847
H 8.94376877 9.96531147 7.95859229
H 0.38602954 8.73002225 3.30605871
H 1.73958853 8.70851902 2.55282110
H 5.63830504 12.15581506 1.93053603
H 4.30864841 12.15118950 1.13604152
H 7.38524874 12.39977624 3.36059077
H 6.04974064 12.39450916 4.15297551
H 4.26343859 12.08146159 5.55413965
H 5.16517683 10.82961060 5.55425909
H 2.12526332 8.49135969 6.37791683
H 2.10992191 8.48009369 4.82923062
H 2.13766766 12.37251734 6.37243628
H 2.11860493 12.35600278 4.81966374
H 5.22236543 10.04019985 1.13214086
H 5.66287522 8.77589476 1.90577096
H 5.63412312 8.71084967 6.35728217
H 4.28590965 8.70658481 5.59633720
H 1.81279252 12.09240665 8.63770204
H 0.45555833 12.13642610 7.87594577
H 0.42461269 12.10841940 3.30024072
H 1.30098360 10.83263575 3.30973810
H 2.60301990 13.68121424 1.10945180
H 2.16340961 12.41089893 1.87321113
H 3.53616606 8.44806102 1.10670713
H 2.66138508 7.17104316 1.09362692
H 6.46450064 7.19184754 3.36149649
H 6.02516089 8.45209520 4.13679658
H 7.38028310 8.42716767 7.80263082
H 6.47955063 7.17884884 7.80431686
H 7.86985728 11.99260067 8.16853309
H 5.87531766 12.37347353 7.20709302
H 1.79801859 8.78033334 8.62472433
H 1.34635819 10.04180190 7.85077009
H 1.28620472 2.73439401 3.34689320
H 0.38876635 1.47903259 3.33367460
H 5.20934663 3.50601841 1.07654681
H 5.65359968 4.77646295 0.31256163
H 6.00163165 5.05939846 2.58422754
H 6.00135354 5.06714827 4.13210863
H 4.29053593 4.82985911 5.61920847
H 5.63034071 4.80359478 6.39320321
H 2.15726862 1.12383153 4.79104996
H 2.60642769 14.45966717 5.55847733
H 2.15135827 5.12021412 4.79617551
H 2.58393331 6.37664348 5.58308919
H 5.68054291 1.41396924 0.33251833
H 5.68742340 1.40919033 1.88400444
H 5.18525054 2.69195913 5.60459798
H 4.29918673 1.42828538 5.58013054
H 1.37561479 3.50975394 7.82837632
H 1.79239432 4.77669621 7.04433218
H 0.41250874 4.86985690 3.31871127
H 1.74732937 4.84057784 2.54048497
H 2.17458088 5.06558959 0.28050445
H 3.50884052 5.04588235 1.06072312
H 2.17449901 1.20006777 1.89257683
H 3.52474895 1.18032401 1.13502798
H 6.50312743 14.49450565 3.37542399
H 6.05196724 1.15679270 4.13923268
H 6.39073862 14.39642663 7.92693955
H 6.04037203 1.04929257 7.07972301
H 7.38665134 5.03378018 7.85150343
H 6.05516659 5.05355272 8.63746767
H 1.82987276 1.41019044 8.61570068
H 1.82641351 1.39942764 7.06555180
H 9.04355416 2.77225646 3.29277010
H 8.16690931 1.49694986 3.31185917
H 13.42266839 4.80385937 0.29708599
H 12.97807133 3.54591079 1.07284199
H 13.81277989 5.13970660 2.54874179
H 14.24333481 6.41836094 3.30644076
H 13.46407936 4.90148303 4.82972443
H 13.47775662 4.89404885 6.37826976
H 11.27484005 1.30023377 5.56244479
H 9.94663338 1.28900940 4.77254993
H 10.37819607 6.40751898 5.62626817
H 11.29492158 5.16458014 5.60873714
H 13.39073873 1.43509894 0.28349740
H 12.04359348 1.43658041 1.04507050
H 13.45074995 1.51011346 6.36668983
H 13.01945019 2.79706288 5.62388499
H 9.52971332 4.76443357 7.05496408
H 9.06596034 3.48652516 7.80256375
H 9.51139363 4.88128763 4.15287350
H 8.17080800 4.87955711 3.37640128
H 9.94728172 5.11211546 1.90683729
H 11.29181676 5.08759400 1.13499205
H 9.91140347 1.15798376 1.85937687
H 10.36101919 14.49230088 1.08692980
H 13.76980842 1.19954456 2.56431326
H 13.78755967 1.22486525 4.11146261
H 15.21809486 1.14405954 7.81599145
H 14.30047784 14.50082907 7.80068451
H 15.21145865 5.05603155 7.87488603
H 13.86067596 5.08377287 8.63440706
H 9.48032721 1.41317528 7.03702584
H 8.15270865 1.34586606 7.83494416
H 1.80100767 1.47876447 13.13509964
H 1.35710883 2.73981225 12.35571542
H 5.64207387 4.85250097 10.88055171
H 4.30693574 4.84511891 10.10443483
H 6.44887062 6.44219804 12.28306384
H 6.03408865 5.19433525 13.10501768
H 5.63257988 4.84882301 15.35414116
H 4.29430358 4.84881330 14.57769930
H 3.57480732 1.13666695 14.56255028
H 2.66583537 14.48299417 14.53957238
H 2.15963859 5.13411609 13.75019878
H 2.59898512 6.38628290 14.54459462
H 5.67280165 1.43483732 9.28505509
H 5.23862030 2.71422060 10.04941999
H 5.23772410 2.73482799 14.51914352
H 5.68787606 1.47136379 13.74200878
H 1.76964144 4.79206036 15.98357372
H 1.33192554 3.52188901 16.75416612
H 0.43671376 4.84586441 12.27249386
H 1.78254348 4.85969005 11.51276142
H 2.17914059 5.14014897 9.28546186
H 2.62511091 6.41816200 10.04531512
H 3.53610426 1.16511354 10.09282701
H 2.20057457 1.16404006 10.86216027
H 6.03736812 1.13178192 11.52131616
H 6.49493676 14.49015455 12.33701105
H 7.40293465 1.20155238 16.77565125
H 6.07002851 1.18844929 15.99539168
H 6.51748137 6.37553133 16.82176107
H 7.41609309 5.12169530 16.80468504
H 1.81318727 1.40555057 16.02155007
H 1.79508424 1.42960444 17.56760898
H 8.11117515 8.73579348 12.22345039
H 9.47868811 8.68315561 11.49685310
H 12.97130726 10.83321078 10.05505073
H 13.43801625 12.08520107 10.82552206
H 13.83397809 12.41083640 13.07151441
H 14.27788818 13.66280148 12.29089064
H 12.07537878 12.16346054 14.55872722
H 13.40934400 12.14608100 15.34153108
H 9.87418983 8.44393471 13.71624544
H 10.36425599 7.20677849 14.50143542
H 9.94460844 12.40310280 13.75196144
H 10.36013441 13.69368764 14.50685433
H 13.45977469 8.71516994 10.83313301
H 13.45658906 8.71617520 9.28838849
H 12.94127467 10.04020453 14.55019318
H 12.03829925 8.78709605 14.52573271
H 8.19197621 12.13530287 16.75224300
H 9.51842025 12.14969317 15.95002471
H 9.10529913 10.81668566 12.29710555
H 9.57176426 12.09985895 11.56497841
H 11.28425098 12.45090565 10.09223705
H 10.40029139 13.71754558 10.12639762
H 11.30172344 8.39954238 10.08086833
H 10.42500975 7.12599842 10.08861072
H 15.19580857 8.48455655 12.34432722
H 13.84517904 8.48176880 13.09970986
H 14.23307556 7.18082613 16.76367785
H 13.78838430 8.45254494 16.00472033
H 15.17941613 12.38104738 16.80502827
H 13.85016473 12.38690830 17.59416917
H 9.53260358 8.76724505 15.96253434
H 9.10626221 10.03145147 16.74186849
H 1.78746210 8.77946195 13.11550623
H 1.35626908 10.03260660 12.31516077
H 5.70562470 12.31923553 8.77206664
H 5.40969889 12.01730204 10.73156839
H 7.41944758 12.41561513 12.38912134
H 6.09562526 12.41427280 13.17520388
H 5.61124067 12.12945059 15.41535963
H 4.29332479 12.11729185 14.60036210
H 2.18702845 8.48122741 15.36837750
H 3.52784932 8.48553844 14.59393630
H 2.16934329 12.38660823 13.71203700
H 2.12483135 12.37491689 15.26353164
H 5.04661347 10.19678926 10.02116067
H 5.56371667 8.88913973 9.28455019
H 5.20150884 10.02211795 14.59927413
H 5.65921659 8.75079172 15.34404483
H 1.33421860 10.83391076 16.81458699
H 1.78423655 12.10750953 17.56297706
H 1.83398302 12.07469074 11.44371174
H 0.48264260 12.11630501 12.21752127
H 2.67737055 13.52170493 10.04165671
H 3.59261988 12.21212861 10.02527374
H 3.53004914 8.54437976 10.06314337
H 2.19313032 8.49034181 10.84675927
H 5.96177660 8.53244305 12.99737960
H 5.92826128 8.58035347 11.44674506
H 6.07832966 8.49146177 17.61077205
H 7.40950902 8.48721936 16.82196729
H 6.05822299 12.43386383 17.64042104
H 6.49314144 13.68889364 16.84559886
H 1.74384169 8.71637646 17.61985630
H 0.40418707 8.72589399 16.84255066
