383

O 9.11383710 1.75262238 12.33230987
O 12.97456233 4.49773352 10.03298173
O 14.32815997 5.46748381 12.23305290
O 12.79210255 5.11914265 14.54399434
O 10.32995897 0.83433273 14.54819586
O 10.22154562 5.50506068 14.51147069
O 12.98835638 1.74784664 10.10074396
O 13.25662274 1.20711361 14.50193195
O 9.05734446 4.50133062 16.81063786
O 9.08518700 4.49346503 12.29028698
O 10.37760270 5.41176206 10.07865968
O 10.39759264 0.88292377 10.08383350
O 14.32459644 0.78023000 12.20985571
O 14.52718459 0.59683567 16.70459144
O 14.28673714 5.45601165 16.86637709
O 9.03492383 1.76066395 16.82424964
O 9.06467938 9.09000066 3.36013042
O 12.93066686 11.82247679 1.13193731
O 14.27962864 12.73143599 3.38541605
O 12.99496709 11.82680006 5.59507011
O 10.39026599 8.17039840 5.58148500
O 10.40509743 12.70224157 5.57285915
O 12.96290545 9.05361076 1.12497267
O 12.96149445 9.09226286 5.59311480
O 9.09008310 11.80395104 7.80090812
O 9.06771637 11.81994070 3.34840380
O 10.36563138 12.70633732 1.12690641
O 10.36192378 8.16656151 1.11991164
O 14.25982828 8.12534638 3.36813856
O 14.26966904 8.16983559 7.81740895
O 14.27166362 12.73246990 7.85192895
O 9.09873058 9.05444560 7.83908042
O 1.29056749 9.08585631 3.35911395
O 5.21067582 11.79855867 1.07352547
O 6.47756447 12.72196849 3.34672416
O 5.20449549 11.78669660 5.60612213
O 2.63207408 8.15750664 5.58043597
O 2.63179376 12.73072761 5.57481770
O 5.16860990 9.06955442 1.10584194
O 5.22653219 9.04198688 5.58798458
O 1.31796225 11.81986192 7.80739213
O 1.33229219 11.81581815 3.32756510
O 2.58074410 12.67304563 1.07071392
O 2.58866837 8.18263819 1.10424162
O 6.48473516 8.15125955 3.32627880
O 6.51596664 8.15262165 7.83390787
O 6.51112337 12.71149131 7.84031029
O 1.32452662 9.08168435 7.80982896
O 1.33766480 1.73955207 3.28773925
O 5.18786160 4.47078811 1.12306089
O 6.47463961 5.41233497 3.33719252
O 5.16564720 4.51568359 5.57265555
O 2.60755548 0.87098417 5.54449202
O 2.58244438 5.41142687 5.57700155
O 5.12212191 1.72869226 1.06104194
O 5.19269284 1.77409238 5.58016665
O 1.30143134 4.49553186 7.82614566
O 1.30449744 4.47832998 3.36045886
O 2.63766992 5.42573901 1.13736587
O 2.55105801 0.84651693 1.01746548
O 6.41245066 0.86685213 3.30837294
O 6.52781858 0.85051746 7.80471945
O 6.50153790 5.41570660 7.78383564
O 1.32694285 1.75932212 7.82577103
O 9.01917917 1.76240510 3.39986194
O 12.97313239 4.53298331 1.09574601
O 14.25177122 5.37482793 3.31447382
O 12.96906829 4.48795545 5.55057232
O 10.35609009 0.83278821 5.59918891
O 10.39180449 5.42777099 5.60379603
O 12.97067670 1.75520670 1.24175470
O 12.95521899 1.75562558 5.61729595
O 9.08123298 4.50325361 7.82513443
O 9.06678279 4.51231176 3.37016696
O 10.35492085 5.42316383 1.10413649
O 10.32334260 0.84967969 1.12488638
O 14.29028210 0.84994996 3.35822404
O 14.24896242 0.86477495 7.86650274
O 14.25447224 5.43309754 7.77375733
O 9.10185601 1.77070218 7.85395764
O 1.39371530 1.77359705 12.30364562
O 5.23395743 4.48748165 10.04081257
O 6.51919659 5.41100077 12.28797814
O 5.21571244 4.51442769 14.54639763
O 2.60278586 0.85715577 14.57749209
O 2.61904624 5.42907334 14.54471762
O 5.24581846 1.74511631 10.06369077
O 5.16084848 1.76121882 14.53897862
O 1.30551930 4.49228203 16.80499651
O 1.35738093 4.48776874 12.30243457
O 2.64663891 5.41447047 10.03212242
O 2.66057547 0.83651794 10.02384588
O 6.48927341 0.85084669 12.32297339
O 6.46787115 0.84689975 16.77537877
O 6.47155261 5.41653260 16.82436507
O 1.26379821 1.59485896 16.75983050
O 9.06049759 9.08297870 12.26894623
O 12.97425511 11.80943830 10.07701309
O 14.28227435 12.68264057 12.27549557
O 13.03470020 11.86270179 14.56804267
O 10.32349071 8.20939727 14.56518503
O 10.42609137 12.67417331 14.59293362
O 12.96196609 9.07631634 10.06001721
O 12.96548721 9.07395414 14.58138805
O 9.10667743 11.81960997 16.80577760
O 9.11639539 11.81550649 12.31395203
O 10.38051262 12.74903940 10.05520279
O 10.39171076 8.13867235 10.05623155
O 14.26616301 8.16601600 12.32256639
O 14.29546289 8.21720827 16.81847948
O 14.37063302 12.73836135 16.71466072
O 9.07899486 9.07225895 16.81948180
O 1.31363537 9.03703918 12.31149410
O 5.22919142 11.80043901 10.08844443
O 6.52140578 12.70450858 12.32722129
O 5.24928627 11.77770952 14.55739326
O 2.59934461 8.15614298 14.57069023
O 2.63776230 12.70163336 14.50122111
O 5.18852252 9.06462442 10.05052110
O 5.19086035 9.03962210 14.56106540
O 1.31010629 11.80803692 16.77647853
O 1.32497027 11.77907507 12.25214063
O 2.62643710 12.69270046 10.04901108
O 2.60604453 8.16582355 10.06895806
O 6.47771351 8.14389496 12.29997909
O 6.47690294 8.15835838 16.82145281
O 6.51991164 12.71740461 16.80714906
O 1.33269547 9.09479309 16.81468955
H 8.20887296 1.43127694 12.35761445
H 9.54796992 1.41818880 13.13144780
H 13.38892234 4.83337492 9.23324787
H 12.06989162 4.82420388 10.03937352
H 13.87668613 5.09362658 11.47260783
H 15.21162428 5.08891424 12.25246143
H 13.36190437 5.14982624 13.77950363
H 13.34209592 5.13001797 15.32510072
H 9.90585037 1.14386671 15.35115972
H 10.35036134 14.47786487 14.59594859
H 9.84044716 5.13377075 15.31091644
H 11.17526725 5.30568455 14.53477567
H 13.46042570 1.43774806 10.88991867
H 13.00011601 2.70927816 10.12124351
H 12.31643029 1.16853361 14.62391156
H 8.15480101 4.83187948 16.84531516
H 9.50465323 4.83834154 17.59307797
H 9.51027684 4.82509542 13.09429222
H 9.11885700 3.53168744 12.33540610
H 9.92070296 5.07237020 10.85833324
H 9.90085397 5.08370992 9.31063257
H 9.96751016 1.19552207 10.88888345
H 11.30995081 1.19508953 10.11651101
H 15.21436453 1.13485171 12.25328392
H 13.91017214 0.97505883 13.08198185
H 14.04861504 0.94512355 17.44401479
H 13.70169450 0.99320741 15.35242021
H 14.34400497 6.41448331 16.86120326
H 15.18729945 5.11656979 16.83244021
H 9.49694423 1.46108231 17.61410518
H 9.07176508 2.72256297 16.83035689
H 9.03845280 10.05351665 3.35824724
H 8.15243495 8.78341561 3.34817539
H 12.96324530 10.86294670 1.14656744
H 13.40506299 12.12495801 1.90975531
H 14.29922524 13.69587094 3.35800174
H 15.19426702 12.43544105 3.35040735
H 13.45562563 12.15994702 6.37205232
H 13.47257119 12.15680393 4.82301900
H 9.94587677 8.49951285 4.79291732
H 11.29014092 8.51490205 5.56130001
H 10.41080855 13.66568736 5.58345524
H 11.32602289 12.41807578 5.57580291
H 12.05872868 8.72552234 1.13986293
H 13.39813460 8.70796239 1.90960394
H 12.98603304 10.05557774 5.60978080
H 13.42185972 8.78863418 6.38281627
H 9.55877683 12.08849819 7.00872108
H 9.10635543 10.84135813 7.80330892
H 9.55613605 12.14288219 4.11272807
H 9.53767478 12.13483499 2.56565953
H 9.94669185 12.38929739 0.31984483
H 11.27907167 12.39234416 1.10700371
H 9.89193298 8.51330091 1.88419403
H 9.90389145 8.49427847 0.33812052
H 13.82321503 8.47085012 4.15264001
H 15.15792331 8.47264511 3.37910662
H 14.28440558 7.20638634 7.80503572
H 15.18678374 8.46236705 7.81108568
H 14.25253300 13.69569512 7.87931355
H 13.81326918 12.42563869 8.64261727
H 9.57652765 8.71945201 8.60700663
H 9.56230005 8.72879146 7.06031788
H 1.31191285 10.04961091 3.37039406
H 1.76954138 8.78672227 4.13775495
H 5.66158505 12.13450064 1.85349701
H 5.68930242 12.13691114 0.30807152
H 6.04785610 12.38593208 4.13906080
H 7.38682436 12.40475109 3.36851473
H 5.66751309 12.08738200 6.39499538
H 5.22155929 10.82417520 5.62064488
H 2.63163285 7.19450322 5.57516866
H 3.55344131 8.43641398 5.58089386
H 2.18061224 12.40647813 6.36120698
H 3.53079818 12.38810992 5.60883031
H 5.16146090 10.03335013 1.09733778
H 4.24795979 8.78284046 1.10617757
H 5.68936790 8.71866425 4.80722337
H 5.70431523 8.71617184 6.35795102
H 1.76042431 12.13734245 8.60237277
H 0.41477623 12.15458214 7.83989191
H 1.81082933 12.15903446 4.08762217
H 1.78771253 12.13035783 2.53660031
H 2.13693633 12.36032460 0.27085797
H 3.48716392 12.35858562 1.03135111
H 2.11415639 8.51310189 1.87308110
H 2.12230064 8.51187321 0.32547703
H 6.47260342 7.18834327 3.29921900
H 6.01476258 8.45697819 2.54226154
H 6.06578349 8.48536370 8.61809479
H 7.42192140 8.47922928 7.86695560
H 7.42671149 12.41167146 7.82114350
H 6.53482366 13.67414335 7.82107635
H 1.32738608 10.04475517 7.78612153
H 1.79025066 8.78141836 7.02251777
H 0.42833928 1.41817459 3.28484564
H 1.74505058 1.42222698 2.47122508
H 5.14620979 3.50839693 1.09249868
H 4.27703041 4.78769829 1.12606392
H 6.01895847 5.05910822 2.56367698
H 5.99482997 5.08995533 4.10716635
H 5.15415655 3.55225555 5.57824801
H 4.24622765 4.80465391 5.57378135
H 2.60285606 14.51058850 5.53269157
H 2.16030146 1.15951259 4.73954764
H 2.10977212 5.07344128 4.80667847
H 2.11755228 5.08322951 6.35393745
H 5.56965583 1.41230242 0.26922650
H 4.21131114 1.40856082 1.01432120
H 4.28576645 1.44787255 5.56564061
H 5.60652847 1.45150589 4.77141423
H 1.77265401 4.80323571 8.60794282
H 1.32001095 3.53266860 7.85271021
H 0.38452894 4.76386079 3.33125502
H 1.29876942 3.51492028 3.32369149
H 2.60435454 6.38709109 1.14374483
H 2.15910000 5.12333283 1.91505043
H 2.54533894 14.48822032 1.02086338
H 2.06825572 1.11954770 0.21393222
H 6.42470986 14.50658036 3.29982765
H 5.95210657 1.14649751 2.50818260
H 7.42894315 1.19169723 7.79316169
H 6.08562306 1.18510797 7.01762487
H 6.02320368 5.12941094 6.99833173
H 6.49139815 6.37859443 7.78648650
H 1.81380599 1.41855646 8.58479707
H 1.77916496 1.44058945 7.03850457
H 9.01802891 2.72471657 3.38287930
H 8.09997450 1.48111684 3.36307636
H 12.06696981 4.84877575 1.05955723
H 13.41658142 4.85046017 0.29831854
H 14.24853686 6.33686457 3.31544529
H 13.79250216 5.09594148 2.51005621
H 13.41876783 4.76821304 4.74467778
H 12.97096065 3.52431794 5.55356772
H 9.87443742 1.16576435 4.83374406
H 9.90225791 1.16833009 6.37896458
H 10.42733606 6.38980572 5.59411602
H 11.30257579 5.11374140 5.57956671
H 12.96465034 2.70844581 1.14138948
H 12.06284315 1.46222801 1.15948115
H 12.05449602 1.41873602 5.62392719
H 13.38393465 1.43165856 6.41625779
H 8.17706626 4.83183550 7.78537261
H 9.53315282 4.83827862 7.04335558
H 8.16470763 4.84768436 3.38656304
H 9.50703178 4.84395156 4.15879680
H 10.34565614 6.38515525 1.13215396
H 9.91007313 5.11878104 1.90006623
H 10.33915685 14.48962948 1.13760618
H 9.87241154 1.13163316 1.92370821
H 13.82520527 1.17157831 4.13383764
H 13.80200326 1.18389204 2.58754777
H 13.82340881 1.19543727 8.66834007
H 15.15414976 1.18977502 7.87617755
H 15.15271148 5.08685705 7.77987403
H 13.82998397 5.09249866 6.97876420
H 9.11237771 2.73380061 7.86429197
H 9.56378502 1.48000315 8.64944802
H 1.86943337 1.42346023 11.54732064
H 1.82498630 1.43618846 13.09815256
H 5.68810737 4.78062889 9.24475441
H 5.24373773 3.52430423 10.03083240
H 7.42309725 5.07333324 12.26996861
H 6.08286020 5.07086279 11.50077893
H 5.67350740 4.84034807 15.32758307
H 5.69649018 4.83951704 13.77942091
H 2.10180954 1.12529059 15.36958864
H 2.59976150 14.49862390 14.56886729
H 3.52223530 5.09934424 14.52385572
H 2.18135124 5.08629148 13.75794889
H 5.70440308 1.41809449 10.84673557
H 5.72091721 1.41375737 9.29538382
H 5.14811151 2.72283219 14.54288954
H 4.24053278 1.46656044 14.56766322
H 1.79025352 4.80304407 17.57108900
H 1.77982652 4.80561497 16.03188663
H 1.36885764 3.52267105 12.29275731
H 1.81381370 4.78082282 11.50994101
H 2.65676022 6.37656013 10.05003483
H 3.56317044 5.12141394 10.03275744
H 3.57808757 1.12750456 10.03745371
H 2.67156634 14.47618141 10.03949914
H 6.48656582 14.49104341 12.35454078
H 6.01403781 1.15522994 13.10460886
H 7.36900619 1.19196139 16.77296113
H 6.03636524 1.17666321 15.98008987
H 6.00988714 5.10405845 17.60896449
H 6.45797786 6.37870617 16.85356188
H 1.18150385 2.54482263 16.75879902
H 0.31013552 1.19824297 16.73888064
H 9.50618149 8.73173005 11.49179331
H 8.15886937 8.74694009 12.25340291
H 12.07483435 12.14975005 10.09651323
H 13.41260030 12.12660565 10.87885162
H 14.30681414 13.65035370 12.26155668
H 13.84478785 12.42889103 13.09769365
H 13.51601436 12.18898948 15.34925113
H 13.04439464 10.90446523 14.61154304
H 10.27381696 7.24448458 14.54262102
H 9.88682081 8.51816549 13.76690474
H 11.35143384 12.39898060 14.57088446
H 10.01439355 12.35625870 13.78559939
H 13.42871738 8.78448678 9.27110248
H 12.97014018 10.03999191 10.05012905
H 13.39799338 8.72671489 13.79576031
H 12.06229025 8.74630268 14.56261363
H 9.58472190 12.10227586 16.01592659
H 9.10385164 10.85718476 16.79476230
H 9.11300008 10.85357357 12.27219685
H 9.56078899 12.12690637 11.51941877
H 9.92902049 12.45344187 9.25972440
H 10.37249770 13.71271595 10.04512719
H 11.30551330 8.44422601 10.06897486
H 10.41508035 7.17511265 10.07466309
H 14.27379886 7.20109634 12.27726879
H 13.81179943 8.47299277 11.53334153
H 13.80902927 8.51320806 16.04130231
H 13.81179982 8.53166221 17.58823423
H 14.42626393 13.77713439 16.73079513
H 13.89230314 12.47560032 17.49599275
H 9.51007912 8.75517594 16.01586000
H 8.17609844 8.74178518 16.79742628
H 1.74274311 8.72296111 13.11467428
H 0.40354916 8.71772992 12.33882588
H 5.69661280 12.13740029 9.31713280
H 5.69801761 12.12764464 10.86452224
H 7.43248541 12.39176334 12.34821501
H 6.09373978 12.36446650 13.12137295
H 5.24275895 10.81566448 14.58948226
H 5.69176862 12.08435559 15.35566479
H 2.58671374 7.19223882 14.59190646
H 2.14914428 8.46317477 15.36582565
H 3.53856292 12.36944301 14.49006044
H 2.20185471 12.37099774 13.71092139
H 5.18102947 10.02785528 10.06753913
H 4.26840621 8.77841407 10.05479356
H 4.28198578 8.71910210 14.54184497
H 5.62135692 8.71005310 13.76577809
H 1.74534716 12.13656363 15.98659664
H 0.39732439 12.15783607 16.75631399
H 0.41017462 12.08676947 12.27444635
H 1.29299073 10.81741137 12.27674609
H 3.53018439 12.36480852 10.08434867
H 2.17747336 12.36136673 10.83678946
H 2.13022146 8.47388575 10.84936121
H 2.13317515 8.49844939 9.29969423
H 6.48599657 7.18037382 12.27480290
H 6.01711175 8.44023573 11.50885820
H 6.00812793 8.47332833 16.04178596
H 6.00234314 8.49702558 17.58789980
H 7.44108111 12.43416656 16.79780478
H 6.52264764 13.68138810 16.78853523
H 0.41253115 8.80514014 16.80814233
H 1.31171160 10.06095492 16.79182714
