383

O 9.05566498 1.76407556 12.27910513
O 12.92982998 4.57461689 10.06200216
O 14.23806606 5.38301497 12.32308316
O 12.94439892 4.47418720 14.57119283
O 10.35417640 0.76220642 14.52238362
O 10.36180444 5.36906026 14.57367337
O 12.95610865 1.82041983 10.01368659
O 12.92089065 1.72805822 14.52790641
O 9.06849064 4.43672005 16.82271278
O 9.06159023 4.48441572 12.33685268
O 10.35172359 5.49195298 10.13275723
O 10.40021271 0.88474693 10.05896651
O 14.25854506 0.89600669 12.26410992
O 14.27647806 0.95883771 16.80084815
O 14.27492674 5.43885042 16.77226683
O 9.11978958 1.70681115 16.76588097
O 9.07630091 9.05791092 3.36307775
O 12.91133027 11.74597201 1.25311037
O 14.23418515 12.69389156 3.40083252
O 12.92499349 11.79304970 5.59585700
O 10.39003178 8.15642464 5.59044047
O 10.36050402 12.74946407 5.54861577
O 12.96038207 9.04435298 1.12676746
O 12.97555051 9.04053092 5.58561901
O 9.04836162 11.78957555 7.76561607
O 9.04798052 11.78626215 3.35477683
O 10.33569380 12.71599865 1.09305277
O 10.36055491 8.11532731 1.12496876
O 14.25085827 8.11985811 3.33763765
O 14.25983704 8.16548438 7.83904544
O 14.27535006 12.71595152 7.79868813
O 9.05511839 9.07063448 7.83119311
O 1.28879060 9.04737088 3.35607156
O 5.21211126 11.81622816 1.07456918
O 6.46881865 12.71543375 3.31436964
O 5.16370801 11.79074278 5.53150698
O 2.58282658 8.16591975 5.61317892
O 2.60140353 12.71955441 5.54523016
O 5.19910753 9.08046290 1.09001970
O 5.18437280 9.04284795 5.56572894
O 1.32184549 11.81199537 7.80194029
O 1.28759786 11.80098649 3.32484933
O 2.65758177 12.74856914 1.12848154
O 2.61561877 8.16052326 1.12858543
O 6.49887694 8.16150752 3.31612873
O 6.49968636 8.12175103 7.76579825
O 6.47969112 12.74527409 7.76521367
O 1.31857922 9.08069775 7.85717966
O 1.33900093 1.75358741 3.33866669
O 5.19975239 4.50720022 1.12277112
O 6.50924793 5.43386911 3.34860752
O 5.19568654 4.54632524 5.58348707
O 2.61285252 0.84411941 5.59031355
O 2.60081081 5.42555947 5.59138806
O 5.22077777 1.76992554 1.11061094
O 5.18174334 1.80644381 5.58382901
O 1.28095018 4.49019906 7.81933020
O 1.31296099 4.48258910 3.35864441
O 2.60258160 5.40829431 1.11636191
O 2.62014541 0.88735076 1.08244246
O 6.50339352 0.86262334 3.36301639
O 6.49758912 0.89601622 7.81792813
O 6.52798710 5.37948236 7.82607039
O 1.30959655 1.74296104 7.82705288
O 9.09170221 1.77778807 3.30740415
O 12.98186018 4.51384919 1.05790006
O 14.26381926 5.38318794 3.32835962
O 12.97765048 4.48739263 5.58303859
O 10.38686659 0.89262785 5.55621240
O 10.39693837 5.40585949 5.59157731
O 12.99425008 1.75780174 1.09624332
O 12.99361288 1.75650237 5.57945559
O 9.13213332 4.53018468 7.86498117
O 9.09276745 4.52789431 3.34003257
O 10.38502591 5.37090045 1.09108650
O 10.40354831 0.83670245 1.09560829
O 14.27060633 0.85208575 3.33845894
O 14.26281808 0.84303684 7.82382889
O 14.23897709 5.42916837 7.82501863
O 9.09303314 1.79927069 7.80383201
O 1.34692663 1.75910866 12.30600211
O 5.21208046 4.49560571 10.06349549
O 6.49789833 5.47278081 12.30987453
O 5.22143540 4.52256804 14.53137869
O 2.65351567 0.85454306 14.53116793
O 2.61602611 5.40381426 14.50696301
O 5.23598576 1.74854107 10.10002492
O 5.23594533 1.76167735 14.54944639
O 1.32976304 4.54652903 16.77281297
O 1.28721340 4.47497935 12.29575651
O 2.60036521 5.37801299 10.07593420
O 2.63838760 0.83693979 10.07165675
O 6.50962076 0.75706798 12.28529135
O 6.51277015 0.86459617 16.79607085
O 6.47889872 5.37197225 16.80952057
O 1.37218194 1.80232646 16.76006382
O 9.00802402 9.24088395 12.29857810
O 13.03925467 11.76457513 9.98277668
O 14.30771230 12.72321848 12.17429649
O 12.77771715 11.77998737 14.06174288
O 10.38284834 8.14997421 14.56971060
O 10.19965001 12.69815906 14.39660198
O 12.94150697 8.99895056 10.07588590
O 12.96651112 8.98630621 14.49136394
O 9.03341568 11.78033829 16.85294052
O 8.87725105 11.74600114 12.42239392
O 10.44922541 12.81508333 9.96176966
O 10.30258099 8.22746956 10.17181709
O 14.27479840 8.10528482 12.30846860
O 14.27491245 8.15932881 16.81027715
O 14.51044310 12.86229971 17.46584133
O 9.06264945 9.02052297 16.82368002
O 1.32886503 9.07446062 12.31128179
O 5.18234951 11.79800210 10.02514622
O 6.58542278 12.69738651 12.37201731
O 5.24869575 11.82027273 14.48976753
O 2.63276801 8.15465377 14.54333749
O 2.68635335 12.72723712 14.50980320
O 5.20503538 9.04642502 10.01530224
O 5.25027778 9.03876003 14.54207612
O 1.46606531 11.76738521 16.77972577
O 1.32486656 11.80633438 12.30031880
O 2.63333301 12.71479405 10.05129857
O 2.60193100 8.13867251 10.08167685
O 6.55163646 8.19520037 12.28777753
O 6.47038684 8.10498839 16.79962941
O 6.42388688 12.71041719 16.76805928
O 1.33902827 9.05991581 16.79229983
H 9.51134840 1.43039910 11.49893309
H 8.16958831 1.38511900 12.26377174
H 12.03007489 4.91733631 10.10430434
H 13.37188007 4.86704404 10.86704990
H 13.77913563 5.08744748 13.11666882
H 14.25161863 6.34772659 12.34882126
H 12.91496121 3.51068042 14.55975307
H 12.02840297 4.77425767 14.56986926
H 9.90132073 1.10087193 13.74573304
H 10.29555203 14.39409149 14.46473224
H 9.89316631 5.03714494 15.34487517
H 9.88697157 5.04409076 13.80106307
H 12.91687440 2.78148984 10.02423199
H 12.04417140 1.50460877 10.04133643
H 12.03239820 1.35214510 14.51862481
H 13.36248270 1.40912793 13.73513726
H 9.05836719 3.47306563 16.79831109
H 8.15284968 4.73258114 16.81851674
H 8.15219599 4.79893596 12.32918558
H 9.02927863 3.52008554 12.31076003
H 10.31005563 6.45541012 10.17608820
H 9.89829699 5.15899341 10.91471026
H 10.41536313 14.51765763 10.02447183
H 9.94156249 1.17583222 9.26706033
H 13.83371152 1.23958181 11.47322905
H 15.16702193 1.20903083 12.25873656
H 15.18101237 1.27562432 16.73928698
H 13.82656476 1.20426388 15.98685832
H 13.80596962 5.12466185 15.99150986
H 14.25663761 6.40325022 16.74928577
H 9.59902181 1.38142994 17.53423935
H 9.56699281 1.35630387 15.98399159
H 9.53581436 8.76382615 4.15690731
H 9.08483260 10.02183274 3.37762906
H 12.01933063 12.08945566 1.15326716
H 13.45214663 12.13877523 0.54651129
H 14.23732398 13.65438458 3.35121531
H 13.74288890 12.37846784 2.62933382
H 12.94923775 10.83151226 5.57454510
H 13.39710001 12.09936759 4.81193857
H 10.41128671 7.19435089 5.59290092
H 11.30767485 8.44994462 5.59199621
H 11.26944606 12.43044035 5.56460789
H 10.40091738 13.71091340 5.55702091
H 12.04905912 8.73764491 1.11109131
H 12.92431593 10.01009976 1.14979027
H 13.45116041 8.72823569 6.36292737
H 13.44105911 8.70366943 4.81289682
H 9.48186989 12.14159268 6.98319335
H 8.15052127 12.13546827 7.76289285
H 8.14509518 12.11914184 3.36995510
H 9.49290904 12.14376663 4.13097949
H 9.87103963 12.37960596 0.31538180
H 9.86513409 12.38283698 1.86172816
H 10.35310466 7.15342299 1.13689089
H 9.91098533 8.41529791 1.92096539
H 14.24133012 7.15784539 3.30534163
H 13.78799323 8.43159166 2.54973033
H 13.80171404 8.47354862 8.63081494
H 15.15906195 8.50611532 7.88207357
H 13.82691059 12.35547979 8.57714244
H 13.79093355 12.38890932 7.03392676
H 9.53378804 8.76967946 7.05409275
H 9.05691689 10.03487490 7.79744914
H 0.38681589 8.70855588 3.36543611
H 1.71508443 8.73449924 4.16032406
H 4.31035231 12.15667497 1.08212099
H 5.62195988 12.13677259 0.26074091
H 6.03226061 12.42654668 2.50403337
H 6.46597087 13.67752270 3.30764035
H 5.19262408 10.82843323 5.53470060
H 5.62758703 12.08327088 4.73955363
H 3.48916119 8.49191596 5.61538587
H 2.16240313 8.50129360 6.41312652
H 3.50168660 12.37599711 5.52037122
H 2.15530705 12.38897726 4.75779354
H 4.28369407 8.78194690 1.10654772
H 5.17903517 10.04401645 1.07712708
H 5.64757635 8.71976355 4.78617286
H 5.66751180 8.70785461 6.33034866
H 0.41543032 12.14049944 7.78327136
H 1.75205488 12.13546555 7.00435003
H 1.26509548 10.83913006 3.32887675
H 0.37059688 12.09813983 3.33385167
H 2.15510125 12.43981096 1.88841571
H 2.61408084 13.70985991 1.13305601
H 2.60397882 7.19835836 1.14147980
H 2.14591720 8.45146584 1.91720456
H 6.06772117 8.49740374 2.52239851
H 7.40225378 8.49765528 3.31191858
H 6.53920493 7.16062068 7.79366187
H 7.40967633 8.44076708 7.79601893
H 6.00899131 12.45284384 6.98006833
H 6.46615454 13.70719870 7.76488316
H 1.77272743 8.77984405 8.65194778
H 1.33397625 10.04429267 7.86664987
H 1.81004094 1.43905939 2.55904319
H 1.80160771 1.40977455 4.10994283
H 5.67884191 4.84819834 1.88510186
H 5.66095198 4.82303838 0.33727935
H 7.42573148 5.13705726 3.34375523
H 6.52884959 6.39752610 3.33232553
H 5.68345656 4.84544771 6.35889935
H 5.67176243 4.87118240 4.81163130
H 2.60770012 14.48227757 5.59928976
H 2.14620436 1.13415360 6.38166035
H 2.60977619 6.38893606 5.59819914
H 3.52159820 5.14311542 5.59708565
H 5.22788545 2.73249541 1.13926405
H 5.66922569 1.46737211 1.90674632
H 4.27154788 1.49197691 5.58350452
H 5.14988514 2.76867764 5.57397286
H 0.38035961 4.83169991 7.80297251
H 1.72235581 4.82675565 7.03328859
H 1.33420491 3.51912104 3.37863181
H 1.77158475 4.79108115 4.14700192
H 2.16730975 5.06536613 1.90348566
H 3.50745642 5.08003343 1.13563826
H 3.52772779 1.20715592 1.06017256
H 2.18978784 1.20982122 0.28262669
H 6.07125683 1.20089201 4.15367292
H 7.40950090 1.18861628 3.37125936
H 6.04309195 1.20368199 8.61021459
H 6.01284318 1.24336912 7.06319383
H 7.43669076 5.06211410 7.86483812
H 6.08490482 5.05787167 8.61888079
H 0.39473176 1.43947352 7.83375288
H 1.27986020 2.70503405 7.82212617
H 9.10200788 2.73986468 3.28464973
H 9.55074876 1.47040239 2.51688375
H 13.45221796 4.85253917 0.28782089
H 13.45055672 4.83091127 1.83600277
H 13.82430552 5.05629257 4.12033623
H 15.16783955 5.05199032 3.35795443
H 13.42654939 4.79875228 6.37662827
H 13.00069688 3.52414247 5.60726104
H 11.29466079 1.21300905 5.54471085
H 9.96337448 1.21834694 4.75528703
H 11.29865065 5.06741449 5.60865608
H 9.97001249 5.09004208 6.39528801
H 12.98735682 2.71914151 1.07174130
H 13.45350802 1.47526882 0.29416457
H 13.46365053 1.42840170 4.80461548
H 13.45036312 1.41058474 6.35444242
H 9.14477166 3.56673706 7.88340680
H 9.56672251 4.84130586 8.66671601
H 9.57210695 4.84352933 2.56554879
H 9.56774089 4.84296066 4.11621661
H 11.29608466 5.06012227 1.05157345
H 9.93826219 5.03181423 0.30730762
H 10.40677270 14.47389586 1.09788130
H 11.32295724 1.12220658 1.09270996
H 13.83845620 1.17672102 2.53989615
H 15.17804500 1.16988411 3.30884180
H 13.79045310 1.16000995 8.60241745
H 14.24493872 14.48128593 7.85293393
H 13.77551291 5.14621097 8.62211717
H 14.24088753 6.39277274 7.84019240
H 9.52411032 1.46819423 7.00967990
H 8.18843158 1.47020638 7.79124017
H 1.81516876 1.42028103 11.53574915
H 1.81360360 1.42733762 13.08128391
H 5.20462329 3.53263757 10.09730714
H 4.29254491 4.77940631 10.06763858
H 6.52856668 6.43781727 12.27672884
H 6.04785104 5.17560241 11.51425401
H 4.31215527 4.83668773 14.50221110
H 5.65905809 4.87424181 13.74782733
H 2.67679618 14.49216007 14.52706017
H 3.56967593 1.15244903 14.53254424
H 2.15138796 5.09054294 15.28957860
H 2.13268399 5.06937666 13.74404574
H 4.33420136 1.41304206 10.10998085
H 5.67527959 1.37995276 10.87813661
H 5.25113552 2.72310100 14.54638862
H 5.69364778 1.47857839 15.34767685
H 1.75481875 4.86294536 17.57573850
H 0.42201946 4.86981734 16.78899252
H 1.28293461 3.51052445 12.30114206
H 0.36804989 4.76384680 12.30596771
H 2.12489367 5.04716689 10.84632310
H 2.12467827 5.06097040 9.30239569
H 2.17588352 1.13712811 9.28380394
H 2.62855232 14.47474600 10.04756166
H 6.54287838 14.38614522 12.33061254
H 6.07015789 1.06214185 13.08170041
H 6.09386278 1.19381681 17.59646005
H 7.43014989 1.15832886 16.81243786
H 6.02900747 5.08453975 16.00718706
H 6.47432648 6.33587837 16.79017415
H 1.82467996 1.48777934 15.96988653
H 1.38080201 2.76376415 16.73066635
H 9.48189975 8.93680504 13.06985539
H 8.96672403 10.25852674 12.35232518
H 13.01367511 10.80687618 10.05472820
H 13.48778355 12.09478443 10.77246723
H 14.27820784 13.68087715 12.22287238
H 13.74209771 12.39106978 12.89801662
H 12.81383694 10.84735757 14.25729422
H 10.34280236 7.19135823 14.57650339
H 9.92079500 8.44910283 15.35754646
H 11.87100188 12.07182313 14.18868024
H 9.81295888 12.36491140 15.20266666
H 12.01861621 8.72667813 10.13378641
H 13.37989889 8.67437870 10.86924974
H 13.39259106 8.73146450 15.31165444
H 12.05446389 8.67798548 14.54100194
H 9.02236229 10.81990783 16.82735532
H 8.11918744 12.07179920 16.81619493
H 9.66328482 12.32501619 13.63791754
H 9.35549831 12.07864011 11.67450176
H 11.32318743 12.42209103 9.97417453
H 9.98137799 12.43122790 9.21985844
H 9.83664161 8.62333322 10.92805107
H 9.85604450 8.53942049 9.38138367
H 15.16824863 8.46057463 12.32752139
H 13.82453868 8.43904531 13.09698935
H 13.83609407 8.49862804 17.59608142
H 15.17304103 8.50554133 16.81943952
H 15.31056280 12.48890252 17.10503824
H 14.41900489 13.75261286 17.13349383
H 8.16319863 8.68075815 16.83606900
H 9.49687101 8.69490750 17.61734568
H 1.33234340 10.03894979 12.32222444
H 1.78765154 8.78528590 13.10664649
H 5.65284001 12.10534231 9.24684663
H 5.21761185 10.83756467 10.00913325
H 7.54073299 12.30653001 12.37569170
H 6.15472293 12.37350388 11.58450074
H 5.27377509 10.86045647 14.48692222
H 5.75016949 12.11804273 13.70812288
H 2.60820114 7.19293866 14.54681916
H 2.17878606 8.44785094 15.34062727
H 3.58915659 12.38902180 14.45959998
H 2.21948932 12.39907356 13.73448834
H 5.62982876 8.70406993 9.22377547
H 4.30247958 8.71544185 10.01784385
H 5.69032135 8.72981251 13.74119025
H 4.34407937 8.71991215 14.50745729
H 1.92305691 12.12533885 17.54439465
H 1.90241614 12.11573767 15.99629859
H 0.41823995 12.14127899 12.27306274
H 1.76213666 12.13131248 11.50790120
H 2.19771713 12.38674230 9.25957036
H 3.53874442 12.37794299 10.03226316
H 2.15665939 8.44807302 10.87921250
H 2.58140170 7.17721977 10.10391407
H 6.11053086 8.52135362 11.49981408
H 7.44408015 8.58550847 12.28923534
H 6.03328011 8.44631584 16.01011126
H 5.99846388 8.46274633 17.55766524
H 6.44745836 13.67108546 16.74445461
H 6.00938487 12.41778300 15.94615494
H 1.78889475 8.76522806 17.58866174
H 1.38506819 10.02471130 16.79283085
