383

O 9.11752277 1.73050092 12.33813735
O 12.99540688 4.51623725 10.06143810
O 14.27754467 5.43514201 12.28875814
O 12.97444150 4.51347767 14.52126004
O 10.37809370 0.87865646 14.57374442
O 10.38094367 5.42863356 14.57363466
O 12.98006187 1.77367193 10.05289263
O 12.99447415 1.77444760 14.55040383
O 9.10980007 4.50043494 16.80407144
O 9.08417116 4.50227529 12.30989508
O 10.38000187 5.40002910 10.07207752
O 10.38987530 0.87979659 10.03970383
O 14.22698872 0.80858827 12.30973683
O 14.29302952 0.87740141 16.80959290
O 14.22508345 5.41868850 16.78724938
O 9.10660522 1.76286125 16.81154774
O 9.07684185 9.08657976 3.29999332
O 12.95229849 11.81408954 1.10710211
O 14.24117828 12.73386464 3.33346960
O 12.99869376 11.81446325 5.59980839
O 10.38636892 8.15622484 5.52500579
O 10.38598661 12.72766461 5.60423504
O 12.99266452 9.05476454 1.09330690
O 12.96984426 9.07165234 5.56662465
O 9.12457937 11.80637340 7.82263528
O 9.07705977 11.82703927 3.35239143
O 10.36927232 12.68617067 1.07907801
O 10.40201925 8.17758345 1.08123105
O 14.26221641 8.14348298 3.33692696
O 14.27220236 8.18216934 7.82143323
O 14.34087814 12.72593083 7.81682790
O 9.09044021 9.05442076 7.79595786
O 1.31221685 9.06380821 3.36746419
O 5.21305422 11.80971841 1.10107612
O 6.49594734 12.72136235 3.32891017
O 5.21161275 11.82174931 5.56934051
O 2.63532729 8.17489865 5.59328337
O 2.61067020 12.72783841 5.60602482
O 5.21039689 9.05982459 1.11901345
O 5.21589399 9.08723560 5.60980134
O 1.37260279 11.78376381 7.84896398
O 1.29621299 11.81168275 3.37574740
O 2.61231776 12.73317926 1.13232473
O 2.61957249 8.15871110 1.12444590
O 6.49946442 8.15893104 3.37957872
O 6.49016651 8.20295701 7.85989616
O 6.51468409 12.75477453 7.74081099
O 1.35888221 9.03397980 7.84783872
O 1.31888635 1.76439612 3.35871935
O 5.18593208 4.52793596 1.13617557
O 6.49725336 5.40751431 3.36635153
O 5.19544592 4.49071767 5.60050266
O 2.64437168 0.85601206 5.56865938
O 2.61691317 5.44199368 5.53326486
O 5.20056887 1.78973826 1.14812481
O 5.22349669 1.75574902 5.61065278
O 1.34985355 4.53005670 7.78344444
O 1.28627327 4.50243195 3.32668796
O 2.58691881 5.41477862 1.09142604
O 2.61757569 0.87410938 1.11980057
O 6.53268303 0.85118349 3.37690560
O 6.51117886 0.90903965 7.85216027
O 6.47025113 5.43512742 7.86691865
O 1.32338763 1.79061509 7.78980485
O 9.13490728 1.74967392 3.31055534
O 12.96954429 4.50058366 1.08957580
O 14.23874085 5.40428224 3.33583484
O 12.95290571 4.52268439 5.57744707
O 10.39377068 0.86145729 5.57360866
O 10.36810642 5.40796831 5.55580790
O 12.97396763 1.76676691 1.11138822
O 12.97153079 1.78209631 5.61783865
O 9.07173573 4.58111517 7.80978666
O 9.08121465 4.49714546 3.31585538
O 10.39188509 5.44871749 1.11040999
O 10.40540748 0.82568317 1.06852252
O 14.25812477 0.87783373 3.36888806
O 14.29241031 0.85843390 7.82688026
O 14.29237452 5.44908422 7.80650938
O 9.11045051 1.83799818 7.80693575
O 1.27195693 1.76374356 12.31078025
O 5.23997073 4.43542839 10.08643963
O 6.50573443 5.38635211 12.32048623
O 5.18350383 4.45970715 14.56341121
O 2.55565633 0.88728240 14.54602118
O 2.52312989 5.33971893 14.55983703
O 5.23047498 1.71819488 10.10738633
O 5.15605234 1.71974470 14.47278489
O 1.28750588 4.49816528 16.80969416
O 1.29440208 4.48100616 12.25368347
O 2.66892305 5.38196042 10.06069775
O 2.59303940 0.85003424 10.07066980
O 6.37500178 0.74871650 12.29146784
O 6.48298881 0.89556594 16.79709804
O 6.48132708 5.31935529 16.82515372
O 1.34527609 1.76269093 16.81686904
O 9.14998749 9.05261119 12.31467189
O 13.00203542 11.83184046 10.04097151
O 14.28295889 12.68520347 12.28773692
O 13.00635012 11.80298545 14.55619432
O 10.40796500 8.15554661 14.53879768
O 10.45639134 12.73359369 14.61243436
O 12.97506822 9.09807839 10.02929798
O 13.00641547 9.07146946 14.52693771
O 9.09264310 11.79122634 16.81350843
O 9.19377129 11.72044375 12.31931393
O 10.41018415 12.73781284 10.03189947
O 10.41816856 8.15136180 10.01560692
O 14.27726193 8.17288659 12.27164243
O 14.25868526 8.15917725 16.77927064
O 14.27080843 12.73587893 16.81455576
O 9.11664720 9.03916686 16.79422803
O 1.29887467 9.07274773 12.29891204
O 5.16505455 11.85560115 10.15808975
O 6.26151214 12.87982261 12.12574813
O 5.01811192 12.20219589 14.31168610
O 2.46404367 8.05500564 14.51300034
O 2.52228689 12.79646538 14.48051695
O 5.22082885 9.18857115 10.04159876
O 5.08320107 8.04216524 14.50815575
O 1.32797693 11.79465189 16.82250202
O 1.31233520 11.80797742 12.28001581
O 2.64969494 12.67982053 10.05712234
O 2.61076268 8.14987043 10.08471804
O 6.57644166 8.08992592 12.17416480
O 6.59138524 8.07049490 16.88211856
O 6.56656191 12.74055080 16.76876048
O 1.30246422 9.06939658 16.81421989
H 9.55045234 1.44144203 11.53088857
H 9.09312016 2.68994212 12.30628796
H 13.46313581 4.85210168 10.83476154
H 13.45797945 4.85719195 9.29008856
H 14.30248925 6.39846201 12.29016956
H 15.19226259 5.12966341 12.27712976
H 13.43910193 4.81378248 13.73305421
H 12.99428765 3.55030458 14.50709119
H 9.94039243 1.18272032 13.76733723
H 11.28135285 1.20528871 14.54255144
H 10.41024268 6.39232314 14.55794792
H 11.29304313 5.12355776 14.54657397
H 13.00550446 2.73606584 10.04213857
H 13.45184394 1.47320357 9.26941381
H 13.44230113 1.41113491 13.77865680
H 13.46518495 1.45085613 15.32452728
H 9.56937279 4.84569153 16.03017168
H 9.56774979 4.84877379 17.57446945
H 9.50924840 4.83320322 13.10608552
H 8.17224296 4.81646905 12.33387754
H 9.94157482 5.07579237 10.86754007
H 11.28293973 5.06919889 10.09192154
H 11.29214689 1.21315879 10.02221895
H 9.95271155 1.22543176 9.25571518
H 13.77934961 1.11689470 11.51597233
H 14.23067822 14.44718074 12.27785492
H 15.20191293 1.19797430 16.83317880
H 13.85771705 1.20631358 17.60164635
H 13.78264543 5.12329896 15.98407324
H 14.22663649 6.38194111 16.76577414
H 9.12291488 2.72526110 16.79207853
H 9.54677741 1.46619678 16.00609549
H 9.05366670 10.04934450 3.32208786
H 8.16217198 8.78505102 3.32331838
H 12.02884078 12.09117671 1.09073143
H 12.95247793 10.85178518 1.09819887
H 13.77988944 12.44186955 2.53941824
H 14.23794396 13.69641068 3.32444786
H 12.99878043 10.85221871 5.56785386
H 13.43086876 12.11802492 4.79469292
H 10.36960629 7.19398713 5.50667029
H 9.92473443 8.45966494 4.73617353
H 9.95667938 12.39129750 6.40128452
H 11.29067133 12.40153066 5.62051063
H 12.08334228 8.73667153 1.07039101
H 13.41871555 8.73723493 0.28915484
H 13.40683509 8.73370987 4.77777167
H 12.06445988 8.74377680 5.53909696
H 9.56719500 12.10616388 8.62555384
H 9.11451869 10.84507758 7.84818059
H 9.51350606 12.15142831 4.14647194
H 8.17254025 12.15935661 3.37026589
H 9.89630331 12.37712359 1.85768706
H 9.89289762 12.34917504 0.30819285
H 9.91992730 8.51568704 1.84309948
H 9.93712684 8.49240837 0.29521808
H 14.24351350 7.18082960 3.31380410
H 13.81831639 8.44738555 2.53694337
H 13.80736569 8.51350638 7.04689930
H 13.79939466 8.51864751 8.59212748
H 15.24001165 12.37782324 7.80929571
H 13.90081567 12.39014595 7.02933999
H 9.50479562 8.73132629 6.99105601
H 8.17909564 8.74096070 7.79470207
H 1.75252887 8.74918429 4.16435529
H 0.41317986 8.72030881 3.38483657
H 5.19297940 10.84774849 1.08293276
H 4.29812856 12.10551955 1.09725725
H 6.01885426 12.39251067 4.09918250
H 6.03378946 12.38942729 2.54961263
H 4.30585727 12.14347932 5.60562916
H 5.66312526 12.17095924 6.35026828
H 3.53878267 8.51002395 5.61282964
H 2.20826271 8.48323779 6.40096532
H 2.13134694 12.39448006 4.84090847
H 2.16366117 12.38359858 6.38803859
H 5.63259956 8.73889994 1.92108767
H 4.30631831 8.72989812 1.13194133
H 5.22832238 10.05126154 5.61632256
H 5.66411114 8.79816220 6.41307831
H 1.84081963 12.08888388 8.63951263
H 1.38548532 10.82197375 7.87443867
H 1.27808283 10.84926834 3.36607634
H 0.38103343 12.10878643 3.35784723
H 2.60956063 13.69568037 1.14630424
H 2.15262422 12.43989844 1.92410312
H 2.15665695 8.45234506 1.91504322
H 2.59376466 7.19633737 1.12872397
H 6.48780179 7.19681502 3.40013696
H 6.04895206 8.46189140 4.17565628
H 6.03942115 8.54680269 8.64396376
H 6.45292705 7.24359862 7.90842213
H 7.42240835 12.44618170 7.78960959
H 6.54484230 13.71394975 7.79244753
H 0.44807887 8.72532111 7.86336161
H 1.78230720 8.69972529 8.64879319
H 1.80369807 1.43259344 4.12282538
H 1.78385990 1.44622596 2.57645171
H 4.28106807 4.85329395 1.09251677
H 5.62782331 4.81359575 0.32709230
H 6.03393575 5.06610800 4.13877215
H 6.01307859 5.09803875 2.59242762
H 5.17617274 3.52730593 5.60806778
H 4.28180827 4.79197821 5.57716854
H 3.56461889 1.14134684 5.58432956
H 2.65133887 14.49450163 5.59019080
H 2.62212424 6.40549436 5.52424481
H 2.14867236 5.15078884 4.74425233
H 5.66814057 1.48564503 1.93152977
H 5.20465251 2.75217190 1.17401357
H 5.70939451 1.42473201 4.84804587
H 5.68984525 1.44805831 6.39797307
H 1.77423150 4.86955391 6.98870606
H 0.44817012 4.86686049 7.77866021
H 1.27785605 3.53938706 3.34638502
H 0.36737690 4.79088445 3.33317232
H 2.11653120 5.07368058 1.85867344
H 2.12049664 5.08842269 0.31351147
H 2.19458345 1.19199702 0.31368834
H 3.52353597 1.20118191 1.10571127
H 6.53725336 14.48983448 3.35221728
H 7.45130906 1.13537984 3.35009279
H 7.40929329 1.24976317 7.87798102
H 6.07704430 1.19048177 8.66857392
H 6.02632611 5.06409020 8.63922662
H 6.00625794 5.10022307 7.09428472
H 1.34378435 2.75296717 7.76675025
H 1.79434383 1.48398059 7.00846257
H 9.12869557 2.71187948 3.28444291
H 9.58042177 1.44939662 2.51073709
H 13.41620057 4.80062793 0.28978431
H 12.97542313 3.53752676 1.07055671
H 13.77507922 5.07225808 2.55912938
H 13.76149067 5.08192698 4.10849716
H 12.93916357 3.55984108 5.60183908
H 12.03384497 4.81211813 5.58033072
H 10.37160035 14.50023183 5.57585551
H 9.95265065 1.14912406 4.76735457
H 9.89645247 5.06729290 4.78825462
H 9.88752659 5.11426508 6.33809636
H 13.39915495 1.44721042 1.91361745
H 12.07593089 1.41677015 1.10887024
H 12.07093239 1.43961854 5.62581810
H 13.40884229 1.44403665 6.40732516
H 8.16212133 4.89658336 7.85340969
H 9.51336755 4.88237535 8.61137701
H 9.51905545 4.85373464 2.53502003
H 8.17424853 4.82169296 3.30335236
H 11.30363214 5.14020544 1.10627679
H 10.42010980 6.41215624 1.10274365
H 9.94386779 1.13433660 0.27900270
H 10.37590049 14.46496569 1.04901697
H 15.16687551 1.19674307 3.38494591
H 13.83071800 1.20676682 4.16675827
H 14.33188163 14.49773808 7.82763578
H 15.20397586 1.17149205 7.81003906
H 13.81786647 5.15142641 7.02447445
H 14.27073293 6.41250859 7.79458249
H 9.11353184 2.79984450 7.77936730
H 9.55400901 1.52777100 7.01208859
H 1.71868209 1.44629113 13.10572942
H 0.37601821 1.41499662 12.33549309
H 5.25197367 3.46997609 10.12323230
H 5.68231915 4.74825684 10.88393551
H 6.03462663 5.12709591 13.11873127
H 6.50747770 6.35111425 12.28697303
H 4.27679802 4.77610722 14.56139774
H 5.14658603 3.49731575 14.51525107
H 3.48316208 1.15300626 14.51653415
H 2.54956674 14.52099271 14.53144873
H 2.09627950 5.03838875 13.75243167
H 2.48423379 6.30395903 14.53840393
H 5.65196300 1.35048105 10.90770777
H 4.32366072 1.40218315 10.10976702
H 5.60394397 1.34255167 13.69569377
H 5.62478654 1.39873998 15.24551441
H 0.38336988 4.82527801 16.78145633
H 1.71558679 4.80661308 15.99949930
H 1.78937422 4.76588661 11.47863077
H 1.29320503 3.51664247 12.24861771
H 2.24308902 5.07515222 9.25561691
H 3.56887836 5.03686355 10.05384451
H 2.13565322 1.19166105 9.29906842
H 2.11875737 1.17167850 10.84303375
H 6.35601125 14.31973468 12.22423379
H 7.29026323 1.01433018 12.31404985
H 7.38713456 1.22032472 16.81756733
H 6.05338164 1.22331800 17.59049460
H 7.38829930 5.00255882 16.78489861
H 6.04131139 5.02388306 16.01937934
H 1.33815783 2.72550077 16.79199960
H 1.78625578 1.46626462 16.00949147
H 9.16057769 10.02229410 12.30605118
H 9.59694905 8.76586185 11.51534601
H 13.46895061 12.13731637 10.82722794
H 13.49202513 12.15594270 9.27893755
H 15.19541101 12.36636577 12.30078776
H 13.85622206 12.35783037 13.08618800
H 13.44232695 12.13560612 15.34678342
H 12.10238861 12.14134135 14.58345502
H 9.97155835 8.48346359 13.74110711
H 11.30832106 8.49360170 14.51759289
H 9.96588516 12.42268035 15.37944367
H 10.40403251 13.69405872 14.61763006
H 12.94974336 10.06120115 10.03945615
H 12.06176122 8.78969629 10.03095781
H 13.01338008 10.03519193 14.51492976
H 13.45553256 8.77941448 13.72635546
H 9.06173426 10.83006088 16.78264611
H 8.17828554 12.10540882 16.77886393
H 9.61957916 12.09941414 13.08830137
H 9.61006611 12.10982070 11.54972053
H 11.33083853 12.46044313 10.03207160
H 10.40827623 13.70009086 10.03717241
H 9.93984309 8.43713848 9.23076152
H 10.39449692 7.18964140 10.02220229
H 13.84158722 8.50406414 11.48030913
H 15.18145944 8.51269154 12.25831040
H 13.84058560 8.49363120 15.97768745
H 15.16628777 8.48550450 16.77484084
H 13.80349914 12.43988813 17.60134643
H 14.26680747 13.69832449 16.83176698
H 9.54366561 8.72529670 15.99049126
H 8.21799733 8.68542463 16.79203011
H 1.33919044 10.03595250 12.31810586
H 1.73866172 8.75607415 13.09908690
H 5.63463764 12.27669955 10.98159241
H 5.62685420 12.17368786 9.38729299
H 7.12819620 12.50464676 12.19745751
H 5.50792647 12.44692072 13.49217138
H 5.59084440 12.34831834 15.05452903
H 2.10820373 8.43598961 15.31871021
H 3.42814486 8.17530855 14.53118893
H 2.16251265 12.41834450 15.28274366
H 3.47552840 12.54991503 14.44183847
H 5.19563135 10.16029091 10.10834802
H 4.31385108 8.88046271 10.07146131
H 5.62285474 8.21288604 15.27539178
H 5.61711250 8.20500432 13.73207692
H 0.42941714 12.13559632 16.84117685
H 1.76838218 12.14014837 17.60404324
H 1.80272511 12.12098128 11.51096250
H 1.76841426 12.15805850 13.05875694
H 3.58158974 12.39193946 10.10004551
H 2.65910026 13.63998186 10.06769410
H 2.15738648 8.44649350 10.88186578
H 2.63968179 7.18975297 10.11611468
H 7.45791452 8.47051824 12.21939823
H 6.12052294 8.51475393 11.44180812
H 6.09702890 8.40733151 17.63346642
H 6.54160029 7.11129490 16.91649372
H 6.52463342 13.70002889 16.79281256
H 6.07329988 12.42897121 17.52866981
H 1.33339500 10.03302936 16.82477007
H 1.76938654 8.77135841 17.59961543
