383

O 9.11326146 1.77261431 12.30826430
O 12.96255635 4.55894844 10.03750185
O 14.27372625 5.40997396 12.30051149
O 12.96995151 4.53201253 14.57275264
O 10.36753575 0.87914097 14.57025391
O 10.37476942 5.43574279 14.57076138
O 12.93374775 1.78849667 10.05071676
O 12.99283390 1.77814311 14.65488965
O 9.07601805 4.50492524 16.81315312
O 9.10481661 4.50217171 12.30780847
O 10.34600679 5.42810710 10.03826228
O 10.40020660 0.86164220 10.06803492
O 14.26953105 1.08033103 12.18837886
O 14.31477939 0.86929727 16.82968715
O 14.26557008 5.43238804 16.83140520
O 9.08341945 1.77009125 16.78674407
O 9.11519334 9.05446422 3.33399625
O 12.92259052 11.81811606 1.13128927
O 14.27593654 12.73692512 3.32799245
O 12.96840533 11.77691466 5.53634516
O 10.40190847 8.12625082 5.58182833
O 10.39302698 12.68435501 5.56136906
O 12.97326690 9.06896117 1.09826030
O 12.99828719 9.03036122 5.57147039
O 9.07772298 11.79259778 7.79890120
O 9.05911255 11.79417943 3.32363822
O 10.32880004 12.73614692 1.09492751
O 10.39300645 8.15534019 1.07898897
O 14.27455608 8.14391425 3.32969300
O 14.29636203 8.13654412 7.79635564
O 14.25459245 12.73022728 7.80352556
O 9.10749337 9.05342366 7.82359099
O 1.33232493 9.08156241 3.33332481
O 5.18975927 11.81999617 1.08279149
O 6.47603263 12.72658312 3.32167622
O 5.16570606 11.81080451 5.56114262
O 2.63693140 8.13367695 5.57959422
O 2.59659787 12.75609333 5.61625885
O 5.20688312 9.08247360 1.13218546
O 5.21202647 9.08292738 5.58217874
O 1.31137299 11.87292858 7.84241130
O 1.32925642 11.82487499 3.37417337
O 2.59966378 12.69829663 1.09069461
O 2.62881626 8.16786723 1.09549375
O 6.52505144 8.16061210 3.35090547
O 6.50408214 8.17641408 7.82892555
O 6.50566638 12.71496692 7.80369513
O 1.32712205 9.08028452 7.82859289
O 1.31811641 1.77215125 3.36451593
O 5.20812175 4.50359944 1.09411102
O 6.50076570 5.42329722 3.34299979
O 5.23890835 4.48382707 5.56859990
O 2.61597205 0.89019249 5.70432820
O 2.63691790 5.37506371 5.56004116
O 5.17843804 1.76549165 1.10063583
O 5.20446812 1.75433843 5.59885585
O 1.32768424 4.40861667 7.84253326
O 1.32337670 4.51357848 3.33785353
O 2.61839398 5.42758651 1.09365762
O 2.59716906 0.84825571 1.07085072
O 6.47254820 0.86053910 3.35146000
O 6.54562766 0.85067187 7.77797655
O 6.49492911 5.42078880 7.81520851
O 1.38948097 1.73358637 7.92870081
O 9.07785491 1.76416432 3.32877863
O 12.95935893 4.49512087 1.12692837
O 14.26441918 5.39509230 3.35462248
O 12.98061809 4.48438108 5.58828563
O 10.38749696 0.82849347 5.57453263
O 10.39712541 5.39312234 5.59045258
O 12.99140998 1.75473506 1.10067213
O 12.98675670 1.75827303 5.59669718
O 9.07188142 4.48444270 7.80598864
O 9.09506553 4.51301131 3.34849977
O 10.39046030 5.40937886 1.10297522
O 10.38710556 0.88031358 1.08058642
O 14.27147646 0.86579196 3.35858423
O 14.19996439 0.87128071 7.81430091
O 14.30919440 5.38925902 7.78694575
O 9.13262765 1.75983584 7.83463605
O 1.42877596 1.65259209 12.19859755
O 5.22095785 4.55741793 10.03951777
O 6.51727176 5.44774960 12.30827298
O 5.21834079 4.53204505 14.54301833
O 2.62358679 0.87403244 14.44902702
O 2.63261472 5.40822972 14.52122554
O 5.35285562 1.77486822 10.11236713
O 5.18667420 1.77254674 14.56432638
O 1.32065844 4.50468754 16.77942658
O 1.37367535 4.52997345 12.30496675
O 2.62840883 5.41771923 10.03089744
O 2.41750330 0.78387754 10.01012824
O 6.54166124 0.86945813 12.32938117
O 6.48066317 0.87159504 16.77844798
O 6.48648125 5.41007015 16.79275949
O 1.37898678 1.75104459 16.71585624
O 9.09461636 9.07334878 12.29211187
O 12.86545457 11.71429693 9.95501031
O 14.18422079 11.72247033 12.20931179
O 12.91249530 11.73904330 14.68718735
O 10.34529883 8.17340472 14.55789862
O 10.34869169 12.74834439 14.58191584
O 12.97787931 9.00365299 10.01521942
O 12.97277224 9.02786424 14.58189399
O 9.02787853 11.82405932 16.81070470
O 9.11440781 11.82957760 12.31777820
O 10.36766704 12.71483750 10.06441463
O 10.39209572 8.14995649 10.05340030
O 14.29472360 8.15909874 12.28521910
O 14.26905981 8.16552002 16.81123113
O 14.27507583 12.74356582 16.85727824
O 9.04522075 9.08187455 16.81146337
O 1.36378825 9.05082493 12.25832988
O 5.18876021 11.83611377 10.07419465
O 6.51522719 12.74860024 12.32947484
O 5.20715043 11.82187856 14.54266650
O 2.63429823 8.14027164 14.55163834
O 2.64256632 12.71057111 14.52372156
O 5.19981784 9.11978805 10.07078837
O 5.22580697 9.08777418 14.55147847
O 1.31136311 11.79482697 16.80210157
O 1.42443408 11.84315881 12.28732870
O 2.47974126 12.86827087 10.02419484
O 2.63179685 8.15803683 10.03252757
O 6.49793690 8.18668669 12.28602506
O 6.47877962 8.14899527 16.82911134
O 6.44908103 12.73156015 16.78283130
O 1.32838444 9.04664775 16.76835122
H 8.20494622 1.44782439 12.29209309
H 9.54806286 1.43914996 11.51509260
H 13.41170713 4.86829106 9.24541296
H 12.05944660 4.88462466 10.00117153
H 13.80274417 5.08585215 11.52649318
H 13.81272081 5.06731736 13.07117249
H 13.40650432 4.86273059 15.36304222
H 12.06948143 4.86981477 14.59217965
H 10.36276601 14.51802595 14.54939646
H 9.93501968 1.17295777 13.76090597
H 9.91276192 5.13445136 15.35890105
H 10.34438110 6.39839813 14.58048370
H 12.94674744 2.74797785 10.04469233
H 13.43395401 1.52231290 10.84476662
H 12.95653505 2.73784367 14.62228997
H 12.08547209 1.46759807 14.60844167
H 9.53966756 4.79601046 17.60491265
H 9.09226043 3.54145095 16.81920442
H 9.11816578 3.53802839 12.32347642
H 9.56146359 4.80036667 13.10016365
H 9.87372706 5.08284534 9.27362144
H 9.90210150 5.08653109 10.82138460
H 10.42683914 14.50153941 10.07112884
H 11.31825085 1.16886294 10.07974651
H 13.90657455 1.28126647 13.04580041
H 13.85626262 1.19235222 16.04217238
H 15.22352039 1.18144550 16.76609456
H 13.80502786 5.13071232 17.61999860
H 14.25483307 6.39554602 16.84795643
H 8.17750138 1.44473973 16.76519828
H 9.51631721 1.44410454 15.98724937
H 9.56881870 8.76453853 2.53553140
H 9.10443282 10.01759003 3.31354179
H 12.00458262 12.10551495 1.11642291
H 12.91774711 10.85571568 1.11822599
H 13.80104998 12.44614299 2.54287167
H 14.26220706 13.70061728 3.32553309
H 13.00053335 10.81535649 5.52738145
H 13.43686509 12.08594773 4.75445234
H 9.95041387 8.43263523 4.78921535
H 10.38515712 7.16337109 5.56062145
H 9.95071774 12.35623297 4.77276837
H 11.29871318 12.35504516 5.53338075
H 13.44335769 8.73336431 1.86903102
H 13.45101825 8.75732886 0.32103070
H 12.09354454 8.70365583 5.60061840
H 13.43853281 8.71301859 6.36931926
H 9.10507092 10.83033078 7.79345066
H 9.55129289 12.08771140 7.01479173
H 9.48415895 12.14451115 2.53298135
H 8.15478564 12.12567117 3.31707916
H 10.34457624 13.69869323 1.06927718
H 9.87202591 12.44267945 0.29870384
H 10.41599618 7.19252481 1.08511455
H 11.30947086 8.45292827 1.07908701
H 14.26625804 7.18119088 3.35351932
H 13.82035719 8.43833170 4.12760886
H 15.19323453 8.48890022 7.82543937
H 13.85235471 8.44641317 8.59505640
H 13.84075739 12.38904851 7.00782632
H 15.16756837 12.41986278 7.80246982
H 9.57709848 8.73237095 8.60240497
H 9.57775116 8.71325182 7.05630883
H 0.42005198 8.77482514 3.33742867
H 1.30371144 10.04428277 3.35430468
H 4.27877085 12.13422328 1.06582886
H 5.61214404 12.15060658 0.28183035
H 6.02003625 12.43905907 2.52350697
H 6.46838226 13.68995387 3.31582741
H 5.59073646 12.15415736 4.76948076
H 4.26499628 12.15590734 5.57007400
H 3.53621488 8.47657689 5.56118285
H 2.19868586 8.46921283 4.79208818
H 2.14857633 12.44839543 6.41543323
H 2.59673317 13.71925082 5.66425410
H 5.21978648 10.04584669 1.13365895
H 5.67541281 8.79086598 1.92124963
H 5.19974243 10.04660427 5.55574796
H 5.67674694 8.78637519 4.79364957
H 1.73939711 12.22209075 8.64503529
H 1.34137182 10.91557540 7.89254680
H 0.42722813 12.16142990 3.37894181
H 1.75582092 12.16526361 4.16971515
H 2.12481296 12.35647216 0.32390069
H 2.13956511 12.38013891 1.87412394
H 2.18363984 8.50073446 1.88204109
H 3.53034488 8.50463115 1.12792310
H 6.52764093 7.19716279 3.35181418
H 7.44563388 8.44286029 3.34544046
H 6.07264171 8.51144701 7.03649461
H 7.41229210 8.49476400 7.80831543
H 6.05444944 12.38798236 7.02050221
H 7.40216760 12.36485470 7.77775361
H 1.79889694 8.74726863 8.60063393
H 1.79705817 8.75108409 7.05788640
H 1.33470827 2.73399328 3.33021213
H 1.76742089 1.46309260 2.57325506
H 5.20399847 3.54030118 1.07845798
H 5.66178649 4.79152654 0.29457066
H 6.03705640 5.09111144 2.56733312
H 6.03752353 5.07796663 4.11543462
H 5.67867529 4.79106424 6.36906374
H 5.23659913 3.51998314 5.60382604
H 2.13196199 1.22050291 4.94624396
H 2.15728974 1.19895059 6.50683782
H 2.65407717 6.33665430 5.58339569
H 3.55356914 5.08221038 5.56714995
H 5.61072461 1.43979451 1.89667288
H 4.27598162 1.42794354 1.11265248
H 5.66046745 1.42224376 6.38198469
H 4.29176515 1.44629656 5.65855245
H 1.78707815 4.67938905 7.04608644
H 1.36326927 3.43597336 7.88102337
H 1.80615952 4.83033555 4.11062691
H 1.78857489 4.84831289 2.56441084
H 2.64686246 6.39019379 1.09383646
H 3.53161024 5.12309436 1.09209350
H 2.58052001 14.48810341 1.05639755
H 2.16939872 1.14322142 0.25953245
H 6.03994833 1.18091577 4.15212419
H 7.37599648 1.19134165 3.36657971
H 6.55136007 14.49022018 7.79428013
H 7.46409636 1.13601168 7.79661344
H 6.49118351 6.38298834 7.82977417
H 6.03411763 5.13372634 8.61442381
H 0.48327956 1.43023493 7.92202539
H 1.81430668 1.35032915 8.77894938
H 9.53763603 1.47532061 2.53375533
H 9.09482197 2.72647360 3.32114496
H 12.98659737 3.53194676 1.12782736
H 13.42590671 4.78585512 1.91837084
H 15.17258148 5.07409445 3.37406874
H 13.83309365 5.06091085 4.14964186
H 13.45475075 4.78696284 6.37223795
H 12.99180453 3.52009711 5.61318040
H 9.92650196 1.13261364 4.78730502
H 10.37591778 14.46827170 5.55031169
H 11.30217607 5.06183586 5.61352530
H 9.95581883 5.06184897 6.38067226
H 13.45088846 1.43059071 1.88273795
H 13.48504249 1.43882009 0.33431807
H 13.41121047 1.42861211 6.40388732
H 12.08479486 1.42568573 5.60571796
H 9.05982290 3.52037376 7.81697575
H 8.15581322 4.78228730 7.80528057
H 8.19038055 4.84199504 3.36852806
H 9.53045881 4.83185454 4.14655060
H 9.95419560 5.09174610 1.90032532
H 11.29292199 5.07093643 1.12808533
H 11.29736762 1.19441061 1.05906796
H 9.95539204 1.20770800 0.28384165
H 13.83706496 1.18537445 4.15825807
H 15.17650207 1.19612757 3.38197839
H 13.76571469 1.17035369 8.62164790
H 14.21644646 14.51241747 7.84640264
H 15.21398176 5.05490714 7.81485247
H 14.35867519 6.35053745 7.78905993
H 9.60154583 1.43595399 8.61394627
H 9.60084049 1.42403178 7.06428375
H -0.31755874 1.24384891 12.22135862
H 1.44113671 2.60563878 12.16282679
H 5.64188605 4.87466468 10.84304331
H 4.30377154 4.85227497 10.06329110
H 6.54681770 6.40988912 12.29743871
H 7.42779883 5.13603415 12.30461984
H 5.65327814 4.85859285 13.74815162
H 4.30841110 4.84915061 14.51378497
H 2.19296004 1.13981494 13.61571143
H 2.62002378 14.51509343 14.45905259
H 2.16722896 5.08090658 13.73820547
H 2.15659060 5.07951830 15.28905770
H 5.28960306 2.72881518 10.05460587
H 5.74625496 1.47187788 9.29316958
H 5.16707015 2.73364806 14.54616969
H 4.26979870 1.47135434 14.50874027
H 1.75853442 4.83485423 17.56932929
H 0.41550334 4.83052402 16.81092578
H 0.45941651 4.82238120 12.27299566
H 1.79412349 4.85157878 11.50194610
H 2.16834558 5.08185190 9.25344876
H 2.60681497 6.37864947 9.98794458
H 1.81861522 1.31723220 11.33439785
H 3.31982116 1.07302610 10.03293932
H 6.08547862 1.20050844 11.54048378
H 6.05202184 1.19297381 13.09076140
H 6.00163891 1.20474992 16.00899053
H 6.01292927 1.19190847 17.55537819
H 7.39215580 5.08323632 16.77580135
H 6.05743577 5.09297072 15.98898428
H 1.37587851 2.71264331 16.70948911
H 1.80913245 1.46532873 15.89935171
H 8.18572645 8.75768727 12.25674564
H 9.53869371 8.73897082 11.50551270
H 13.38049551 12.09689700 9.23950227
H 13.36560603 11.84660518 10.77838283
H 13.79240634 11.86534221 13.06751496
H 15.11696837 11.92305581 12.27232889
H 12.03384818 12.12600855 14.66330017
H 13.37441572 12.12642107 15.43470141
H 9.89262349 8.50353418 13.77427170
H 9.87336127 8.51673304 15.32228008
H 9.85821919 12.41316239 15.33788727
H 9.91185434 12.41055880 13.79244782
H 13.44739490 8.76292508 10.82105668
H 12.94951951 9.96888515 9.98599279
H 12.94018237 9.99203914 14.61075318
H 12.05837427 8.73191311 14.57097104
H 9.01217925 10.86138453 16.81570203
H 8.11076004 12.11903477 16.80377026
H 9.12023726 10.86827605 12.28701511
H 9.56572189 12.13127964 11.52027323
H 9.92205229 12.39469018 9.27548083
H 11.26992716 12.36711064 10.02615197
H 11.31570100 8.42987827 10.05547406
H 10.39421490 7.18632408 10.05061958
H 14.27320947 7.19731597 12.32044244
H 13.83575116 8.47608973 13.06732181
H 15.17738573 8.48242040 16.76622511
H 13.82305838 8.47591852 16.01292630
H 14.28290905 13.70738502 16.85981185
H 13.80409563 12.46100506 17.64568384
H 9.50180154 8.74648791 17.58941818
H 8.14754482 8.73355075 16.84325304
H 0.44401332 8.76630201 12.28098319
H 1.77416680 8.72248314 13.06195066
H 5.65177314 12.17411606 10.84515956
H 5.65467198 12.17313595 9.30509418
H 6.53833214 13.71291702 12.32917759
H 7.42895061 12.44847052 12.32295038
H 5.64772437 12.15709791 13.75301822
H 4.29569855 12.14054839 14.51230164
H 3.54545819 8.44781401 14.54280939
H 2.66033411 7.17705708 14.53339693
H 2.15013032 12.39026901 15.28234082
H 2.18275784 12.39656923 13.73120294
H 5.66210254 8.82140712 9.28204057
H 5.20238294 10.08591100 10.05008653
H 5.67144884 8.79241804 15.35026768
H 5.22713568 10.05173910 14.56742551
H 0.39778253 12.09939892 16.80915667
H 1.28759352 10.83335237 16.77812706
H 1.79169406 12.22266592 11.47412260
H 1.46661085 10.88936987 12.20663474
H 2.46296252 13.88755615 10.01906487
H 3.39571388 12.60246799 10.03387462
H 3.52860782 8.50673168 10.06057148
H 2.18864808 8.47160383 10.83045399
H 6.03964787 8.51174294 13.06748918
H 6.02000599 8.52478247 11.51995098
H 6.46109484 7.18582635 16.83205273
H 6.01992850 8.44349871 17.62223889
H 6.45097482 13.69469307 16.75981715
H 6.00212489 12.43609016 15.97987153
H 1.80287438 8.71558989 15.99683264
H 1.79974476 8.72789994 17.54370348
