383

O 9.06711241 1.76114424 12.32430991
O 12.95562475 4.47410831 10.07321312
O 14.25138636 5.40247205 12.29126118
O 12.97955328 4.51920183 14.54763618
O 10.39684879 0.86135607 14.58905169
O 10.38070459 5.41635584 14.59272513
O 12.93880351 1.76579061 10.02024895
O 12.99943058 1.76151039 14.49948805
O 9.11078255 4.47401039 16.84015811
O 9.06080362 4.54015668 12.33143268
O 10.39614444 5.42467010 10.08571191
O 10.45867169 0.83925481 9.94665535
O 14.24599088 0.87897617 12.23573731
O 14.26405156 0.84554412 16.74187024
O 14.28449964 5.40941346 16.81080079
O 9.09367752 1.74591637 16.79461159
O 9.06655107 9.06164828 3.31346187
O 12.97860408 11.80838644 1.11908569
O 14.26066346 12.70557826 3.36719592
O 12.96636824 11.81399089 5.57308472
O 10.47230894 8.08298737 5.49275638
O 10.42565781 12.75572078 5.50682171
O 12.96919045 9.07567927 1.05219383
O 12.99420106 9.04435895 5.58851387
O 9.41039779 12.24194029 7.81398987
O 9.10762959 11.79797838 3.36733752
O 10.38932090 12.69258012 1.13247924
O 10.38431485 8.15194369 1.07331655
O 14.27632609 8.15601902 3.28900296
O 14.29464754 8.16883325 7.83193670
O 14.24858224 12.74576117 7.85045360
O 8.95071148 8.30720747 7.84574125
O 1.31344664 9.08697809 3.28788686
O 5.22115365 11.79346661 1.13183820
O 6.48300080 12.69070348 3.37095298
O 5.19044905 11.79610899 5.59852531
O 2.55149168 8.12867114 5.56158674
O 2.56943472 12.68235555 5.60032827
O 5.23875704 9.05823614 1.07460422
O 5.15128261 9.04627115 5.55889860
O 1.26589180 11.83104776 7.84282893
O 1.30810780 11.81658611 3.33807924
O 2.61921892 12.70767639 1.10642138
O 2.66129550 8.14734720 1.08137248
O 6.50095856 8.13230915 3.33480247
O 6.35847225 8.06430017 7.85271626
O 6.47489775 12.73523644 7.92105387
O 1.32200230 9.09470088 7.80018189
O 1.30619078 1.74173981 3.33456200
O 5.21128816 4.51998826 1.10213832
O 6.45492126 5.40408145 3.35598448
O 5.16777206 4.46713442 5.56935566
O 2.61603283 0.82968161 5.58262171
O 2.57899306 5.38495155 5.60921163
O 5.20409824 1.77568555 1.06485192
O 5.21154993 1.73556328 5.55610579
O 1.31088937 4.52670972 7.87165653
O 1.32395505 4.47984572 3.35370015
O 2.60767890 5.40808162 1.11662832
O 2.61190812 0.85191456 1.08331490
O 6.50081153 0.83179663 3.30683618
O 6.54314741 0.90334065 7.84791219
O 6.45501416 5.35371891 7.84470596
O 1.37874188 1.77345868 7.82366795
O 9.07186565 1.74130789 3.30182999
O 12.97281459 4.51031257 1.10430683
O 14.27128023 5.43042947 3.33094416
O 12.98213748 4.52997648 5.59398034
O 10.39982555 0.93913020 5.50688091
O 10.37876792 5.33547812 5.55413710
O 12.97943903 1.77042714 1.05026135
O 13.01849984 1.79591176 5.56431241
O 9.10612626 4.50968077 7.83345498
O 9.03299284 4.46480212 3.31879778
O 10.38604278 5.41186616 1.14107011
O 10.40133492 0.83368295 1.08103957
O 14.24785470 0.85460809 3.32824952
O 14.29658621 0.85396593 7.77393570
O 14.25920601 5.40555828 7.86636888
O 9.14532784 1.72989857 7.79515236
O 1.28726717 1.77726751 12.29772250
O 5.17589500 4.48468738 10.07947850
O 6.44038302 5.41118545 12.32463388
O 5.16834064 4.47782643 14.58015953
O 2.59464576 0.85867106 14.51450763
O 2.59433507 5.40639613 14.57432774
O 5.23155929 1.75011846 10.08957373
O 5.19826681 1.74274072 14.51682380
O 1.32932468 4.46660833 16.81959806
O 1.31277815 4.51437783 12.30920188
O 2.61706604 5.45348134 10.10580272
O 2.64313235 0.88004406 10.07833228
O 6.51625012 0.84678439 12.31806785
O 6.49160466 0.83146007 16.77022864
O 6.52519046 5.38890247 16.79385778
O 1.31801430 1.72497832 16.77433987
O 9.06249132 9.08879649 12.33898004
O 12.94154145 12.02090817 10.03781490
O 14.23336703 12.75444071 12.22533036
O 12.96201639 11.81537791 14.53728606
O 10.38407427 8.16148555 14.58405645
O 10.37589310 12.74260452 14.59891678
O 12.99111809 9.14144268 10.09376355
O 12.96804567 9.06084680 14.54935417
O 9.09298699 11.81514995 16.80920784
O 9.07242035 11.86624811 12.44729273
O 10.66827546 12.98066245 9.97890452
O 10.45203057 8.13396413 10.16651099
O 14.29829601 8.15493027 12.35122470
O 14.29129734 8.15487397 16.77725771
O 14.26506659 12.70921305 16.81379956
O 9.08833923 9.07670924 16.78799070
O 1.35799404 9.08163039 12.31928774
O 5.15586642 11.79791404 10.07723410
O 6.42064203 12.73102946 12.31547901
O 5.13068166 11.80323936 14.59122628
O 2.62034161 8.14326210 14.54373812
O 2.53039320 12.71310711 14.55092362
O 5.18296146 9.05413520 10.06758030
O 5.18346246 9.07256979 14.57099924
O 1.31738112 11.77476270 16.81734445
O 1.25846904 11.82685548 12.29408311
O 2.59344238 12.73179716 10.07296170
O 2.61423267 8.19275913 10.05813961
O 6.47192770 8.14791406 12.32064408
O 6.52461712 8.14726497 16.77876104
O 6.49175242 12.69242378 16.81798097
O 1.34821939 9.03137500 16.79415834
H 9.08247544 2.72102033 12.33473982
H 9.54318879 1.46935737 13.10529936
H 12.04330290 4.78687984 10.07830244
H 12.92008233 3.50830167 10.05178922
H 15.15398301 5.07010775 12.26686075
H 13.80545903 5.06426447 11.50508556
H 13.43662543 4.85362911 13.76771952
H 13.45641492 4.84620793 15.31600917
H 11.31155459 1.15589547 14.54978653
H 10.41507625 14.49853015 14.57514522
H 9.96117523 5.07194484 15.38713381
H 11.28385954 5.08354346 14.58793714
H 12.02763860 1.41584507 9.99022892
H 13.38439497 1.43960137 9.23482936
H 13.43303517 1.47251849 13.68722591
H 13.00729958 2.72343072 14.49353015
H 9.56357619 4.77107204 17.63615553
H 9.12098456 3.51022849 16.84787012
H 8.15424577 4.85957736 12.34883661
H 9.49094303 4.86865799 13.12557875
H 10.41464630 6.38957814 10.12857693
H 9.92529009 5.12694604 10.86915776
H 9.99155489 1.10529618 10.73392300
H 10.53203268 14.40779663 9.97781630
H 14.22729245 14.51577148 12.22314584
H 13.77043724 1.16973744 11.44643506
H 14.24369702 14.48455560 16.74487652
H 13.81555784 1.13642755 15.93953797
H 15.18107708 5.06005196 16.83780776
H 13.83653104 5.09103170 17.60150734
H 8.19025619 1.41637781 16.76265988
H 9.53962122 1.42381669 16.00065360
H 9.53186706 8.78246505 2.51977271
H 9.09734495 10.02500690 3.33248158
H 13.40694699 12.12828867 1.92105729
H 12.06960458 12.12802280 1.14438572
H 14.23999047 13.66744223 3.38297089
H 13.79751568 12.40197615 4.16002560
H 12.04927573 12.12240540 5.56225283
H 12.93829309 10.85327441 5.59089619
H 9.96908329 8.40853031 4.74290310
H 10.42112847 7.12319747 5.47489689
H 10.02606905 12.54054517 6.38109292
H 10.43748107 13.71417427 5.47534603
H 12.98170143 10.03901851 1.05199185
H 13.43480009 8.78553444 0.26114893
H 13.42825255 8.73362830 4.79066549
H 12.09192624 8.70072124 5.55545713
H 8.47553804 12.33639521 7.94516508
H 8.20149403 12.11583261 3.40211577
H 9.55155601 12.13156766 4.16277943
H 10.37932305 13.65488570 1.14328602
H 9.92812436 12.39917332 1.92786038
H 11.28804656 8.48329701 1.04917510
H 9.94795703 8.48329513 0.28098519
H 15.17423315 8.50284209 3.26488604
H 13.83135840 8.48659918 2.50225824
H 14.26329076 7.20788149 7.83290304
H 13.82319721 8.45958686 7.04326458
H 13.77135476 12.41070304 7.08678712
H 13.74662855 12.47011596 8.64121318
H 9.51119431 8.36867558 7.07730183
H 9.50342445 8.36769835 8.62334832
H 1.79541361 8.79080559 2.50976160
H 1.32997603 10.05045474 3.28260665
H 5.64882641 12.11672467 1.93446928
H 4.31651568 12.12107995 1.14611681
H 6.48243310 13.65286915 3.37916480
H 6.02899509 12.40074441 4.17123381
H 5.17422207 10.83388165 5.59505392
H 4.27313230 12.08287428 5.61189350
H 2.09179595 8.47073131 4.78936338
H 2.10256207 8.48790734 6.33607592
H 2.10534393 12.39722200 6.39633845
H 2.57525193 13.64452998 5.61810045
H 5.24124729 10.02158681 1.07197309
H 5.69934190 8.77039770 0.27941925
H 5.60272270 8.71589178 4.77701111
H 4.25141571 8.70860588 5.52995539
H 1.70848527 12.15867588 8.63241399
H 0.35529402 12.15465120 7.87415967
H 1.73971148 12.12617344 4.14310634
H 0.40026709 12.13995354 3.37105283
H 2.15700735 12.36370685 0.33480232
H 2.13961143 12.39364078 1.88103027
H 3.58000157 8.43757874 1.08184568
H 2.66710025 7.18479362 1.10388067
H 7.40422729 8.47038811 3.32894891
H 6.08059976 8.46481658 2.53587894
H 5.97364536 8.43505838 7.05589460
H 7.31493897 8.24298639 7.82517244
H 6.06955774 12.42627938 7.11007076
H 6.49466594 13.69366875 7.87178179
H 0.40970246 8.78156806 7.82105106
H 1.28164923 10.05751434 7.81973649
H 0.40004705 1.41494917 3.30825628
H 1.74415721 1.41648873 2.54160857
H 5.63331761 4.84317430 1.90712643
H 4.30484641 4.84298133 1.11892893
H 6.47100189 6.36745050 3.38057271
H 5.99762218 5.10627209 4.15070676
H 4.25166338 4.76077219 5.58996761
H 5.15553870 3.50367843 5.55690292
H 2.13621650 1.15458777 4.81507565
H 2.16941176 1.18076527 6.36167550
H 2.12668414 5.10359983 6.41250967
H 2.56292210 6.34811195 5.60970618
H 4.28876365 1.47806091 1.07560360
H 5.18403127 2.73834697 1.08007925
H 4.31395429 1.38844501 5.55045184
H 5.64519631 1.40454588 4.76342021
H 0.39926387 4.83994049 7.89630220
H 1.74703321 4.86725828 8.65943494
H 1.32663043 3.51670817 3.36755385
H 1.76893457 4.77152111 4.15722276
H 2.14341616 5.06878241 0.34422990
H 2.14361089 5.07395077 1.89200864
H 2.15207195 1.13680789 0.28629846
H 2.60969900 14.49095018 1.07172989
H 7.41052152 1.15076899 3.29231090
H 6.07229883 1.17026181 2.51519029
H 7.46339297 1.19409364 7.81365051
H 6.11785361 1.21207459 7.04486142
H 6.01161516 5.04378743 7.05060165
H 6.40309963 6.31791631 7.82270387
H 1.36275134 2.73472047 7.86207710
H 1.82795349 1.47431906 8.62181898
H 9.55385571 1.44872029 4.08789958
H 9.55623132 1.41095665 2.53890262
H 13.41265843 4.83818459 1.89657933
H 12.06619881 4.83457767 1.13753470
H 14.30482992 6.39384072 3.31534859
H 15.18142921 5.11839386 3.34096892
H 12.06346810 4.82157282 5.56123050
H 13.41286724 4.86933448 4.80403701
H 9.96826467 1.20739013 6.32821063
H 11.30650434 1.25390034 5.55788007
H 9.88568742 4.99662295 4.80175052
H 9.91133161 5.05289153 6.34934819
H 13.43640226 1.47515621 0.25618735
H 12.99394017 2.73311475 1.04417504
H 13.47050628 1.47567075 6.35439150
H 13.02669516 2.75765736 5.60535493
H 8.20259729 4.83624023 7.85419440
H 9.54210019 4.86679669 8.61410472
H 9.01615791 3.50103454 3.30021693
H 8.11871007 4.76498983 3.33576148
H 9.90665152 5.11587829 1.92299196
H 10.36660423 6.37500451 1.14173771
H 11.30171376 1.17290726 1.04918389
H 9.95576901 1.15198886 0.28874249
H 13.77874517 1.17888068 2.55417463
H 13.79347114 1.20558416 4.10433550
H 15.21415502 1.13530961 7.79958925
H 14.29529794 14.49009550 7.79735613
H 13.79516821 5.08992295 7.08451386
H 13.77545830 5.06986374 8.63044242
H 9.61530399 1.39178151 8.57849716
H 9.15943056 2.68798602 7.85411854
H 0.37250084 1.47052962 12.26571704
H 1.26015294 2.73937293 12.29796079
H 5.63927419 4.77572900 9.28386269
H 5.20164550 3.52142590 10.07216225
H 5.98737882 5.07641535 11.54266433
H 5.97253881 5.06602762 13.09044016
H 5.19280444 3.51432132 14.58020634
H 5.65490271 4.76925447 15.35779834
H 2.15221744 1.19673962 13.72750050
H 3.50490210 1.17175969 14.48450561
H 2.62329571 6.36941593 14.56088960
H 3.50805289 5.10106944 14.57674842
H 5.71083179 1.41943718 10.85800635
H 5.70932497 1.44176606 9.31040654
H 5.68449082 1.42310981 13.74579664
H 5.65884680 1.40344269 15.29074915
H 1.33879297 3.50421963 16.77995571
H 1.77481810 4.78216988 16.02566724
H 1.79169708 4.85875034 11.54663769
H 1.77111736 4.83583365 13.09190101
H 3.52756154 5.13727030 10.08593888
H 2.64978949 6.41633646 10.08800321
H 2.19592075 1.20801282 10.86473811
H 3.55337768 1.19551132 10.11227065
H 6.51839796 14.48454715 12.30631550
H 7.43753387 1.13723872 12.31380589
H 6.03695712 1.14700606 17.55776827
H 6.48295272 14.47132966 16.81234770
H 6.08752370 5.07994844 17.59380620
H 7.42801983 5.05431520 16.82540374
H 1.75275646 1.40987483 15.97409777
H 0.40963580 1.40420474 16.74112264
H 9.48867304 8.75156082 13.13033156
H 8.16361884 8.74908937 12.34029062
H 12.87025023 11.06959436 10.03754880
H 11.97852180 12.40881586 10.01870157
H 13.75799484 12.42350478 12.98936317
H 13.73479739 12.47175960 11.43336293
H 13.42606639 12.10531433 15.32675183
H 12.97286921 10.85363170 14.55181001
H 10.40775345 7.19939041 14.58491587
H 11.29926400 8.46139319 14.56111986
H 11.27572296 12.40663497 14.54648279
H 9.91291545 12.42471752 13.80683772
H 13.46863782 8.81493932 10.85819364
H 13.45445433 8.81239509 9.32073708
H 13.44473589 8.73292435 15.31791471
H 13.44425946 8.73792751 13.77554953
H 9.56173425 12.13336418 17.58709844
H 9.56520518 12.15455541 16.03749868
H 8.16326236 12.15617233 12.36738153
H 9.05866548 10.91077515 12.36859564
H 9.86739186 12.50801830 8.64418095
H 10.18762126 12.63549470 10.71829784
H 11.32966707 8.52826971 10.14712217
H 9.98402661 8.51759844 10.91275814
H 14.30350810 7.19358752 12.31615985
H 15.21537330 8.44446041 12.33987454
H 15.20959659 8.44505673 16.78620133
H 14.30713437 7.19240358 16.79458568
H 13.82639038 12.39255654 17.61033506
H 15.16494832 12.36885553 16.83746134
H 9.09657247 10.04024150 16.77196139
H 9.55441105 8.78092605 15.99659226
H 1.79733562 8.79687981 11.51006079
H 1.32213927 10.04423828 12.29105332
H 5.19376079 10.83668850 10.04983510
H 5.64075597 12.11698556 9.30308983
H 5.95167208 12.39603602 13.08285566
H 5.97135992 12.38550812 11.53607990
H 5.57828999 12.13935554 15.37354195
H 4.22824839 12.13616310 14.60962590
H 2.19073927 8.48417288 13.75012362
H 3.52335848 8.48032526 14.53480770
H 2.53818623 13.67509802 14.51758198
H 2.07882288 12.41567627 13.75204854
H 5.63995756 8.70935105 9.28822289
H 5.65840261 8.73022271 10.83854842
H 5.65942663 8.77266607 15.35194977
H 5.18212858 10.03595676 14.59603322
H 1.34114442 10.81281021 16.78398687
H 1.74439477 12.09082571 16.01319838
H 1.71097178 12.15704682 11.51055283
H 0.34769264 12.14600125 12.24267275
H 2.63950000 13.69270816 10.07570994
H 3.50334094 12.41027740 10.06732196
H 3.52480092 8.51405554 10.04032351
H 2.18480714 8.51871085 9.26038326
H 6.01463201 8.45749987 13.10768307
H 6.44466217 7.18592377 12.34181697
H 6.54875951 7.18521559 16.78317392
H 7.43993122 8.45073574 16.77562231
H 6.07604708 12.36439107 17.62190831
H 7.40107146 12.37336861 16.82261911
H 1.83049213 8.70700085 17.56230840
H 1.81123478 8.70663244 16.01379259
