383

O 9.14650517 1.79595351 12.29441919
O 12.99396098 4.50118323 10.02931408
O 14.25621415 5.39657542 12.29857648
O 12.98003849 4.51087324 14.56080693
O 10.35309732 0.87095787 14.57896801
O 10.38835171 5.45187983 14.54856419
O 12.96347519 1.75153378 10.00333089
O 12.92868695 1.76584183 14.57962403
O 9.10086079 4.55992671 16.79205272
O 9.13557728 4.53910960 12.28014976
O 10.42385672 5.42610997 10.03361494
O 10.39617905 0.85907046 10.04731867
O 14.17985194 0.85456681 12.30648384
O 14.19832327 0.78569688 16.87266821
O 14.26045466 5.40134141 16.79890909
O 9.08100774 1.80714745 16.84389622
O 9.07290612 9.08043057 3.33158186
O 12.94346912 11.78156690 1.09316940
O 14.28458262 12.64923391 3.35058857
O 12.93756606 11.74623023 5.58411395
O 10.32479305 8.15881634 5.57240436
O 10.37186013 12.71470064 5.60679739
O 12.94602623 9.06561860 1.14179812
O 12.92537963 9.01093648 5.58443400
O 9.04341769 11.79202388 7.83951889
O 9.11923360 11.80619666 3.34515286
O 10.37729544 12.75369803 1.10562892
O 10.37763149 8.14351736 1.10705572
O 14.25502379 8.15497448 3.37221336
O 14.26653396 8.17434874 7.83312038
O 14.26423043 12.69552931 7.77794928
O 9.03802642 9.03870289 7.82514825
O 1.31010243 9.06035737 3.36292078
O 5.24702799 11.78169871 1.08857915
O 6.50771599 12.68567854 3.35584834
O 5.17847856 11.82084958 5.58820919
O 2.59088073 8.19942166 5.61315849
O 2.63945654 12.77937336 5.54563308
O 5.22312238 9.05619288 1.10851104
O 5.18049728 9.06317043 5.61449741
O 1.34625799 11.87135755 7.76412995
O 1.33296406 11.77526949 3.35000187
O 2.61278126 12.65376874 1.12429043
O 2.61745912 8.16559327 1.12384765
O 6.48503283 8.15571024 3.37482087
O 6.46247473 8.09923325 7.84919365
O 6.47910059 12.73187326 7.81286679
O 1.28819878 9.14154675 7.84061885
O 1.28671389 1.56363550 3.44431817
O 5.20961662 4.45146160 1.07476950
O 6.48212412 5.39089915 3.34701518
O 5.19257592 4.46504128 5.57303894
O 2.59374314 0.84497260 5.43693319
O 2.66042841 5.45186667 5.62731583
O 5.11619696 1.73999584 1.15700095
O 5.10230781 1.73366313 5.53056826
O 1.31770004 4.51798325 7.83093849
O 1.25917684 4.66003745 3.34834341
O 2.64131030 5.46899251 1.06533293
O 2.58994399 0.89661824 1.35456729
O 6.49111578 0.83467739 3.38118485
O 6.46358867 0.85775824 7.82099899
O 6.48277569 5.36070395 7.80831735
O 1.29244721 1.80894195 7.80253181
O 9.04309870 1.74822164 3.38025522
O 12.96572372 4.46786274 1.09919810
O 14.23989044 5.44382125 3.33383642
O 12.97277816 4.53629392 5.56624182
O 10.41741208 0.84626653 5.59079471
O 10.34734866 5.41492949 5.55958629
O 13.02712181 1.75297922 1.21539044
O 13.00568988 1.75196864 5.50137318
O 9.09718965 4.52118030 7.81735513
O 9.06607972 4.47845469 3.32705049
O 10.40098444 5.40485979 1.11455618
O 10.37225550 0.87304777 1.15489501
O 14.39079586 0.88990955 3.37446911
O 14.22448656 0.84945714 7.77074692
O 14.25466105 5.43141829 7.79753993
O 9.08572748 1.77713436 7.81619753
O 1.23697243 1.80230085 12.16649945
O 5.19990600 4.46115688 10.05142774
O 6.52916604 5.40795108 12.26346506
O 5.24417029 4.51977068 14.54825165
O 3.17494481 0.58132015 13.73530944
O 2.63742323 5.39588280 14.51776030
O 5.18849359 1.73055278 10.09241175
O 5.33663463 1.82217897 14.54043646
O 1.29406140 4.56185582 16.82902650
O 1.30886185 4.54840069 12.29914284
O 2.62759900 5.43523017 10.04125242
O 2.60593639 0.84159353 10.01873849
O 6.56343171 0.86564539 12.31430344
O 6.46228293 0.87050426 16.88547558
O 6.49528077 5.40256929 16.81747797
O 1.24667671 1.96974987 17.15826407
O 9.09674416 9.06675921 12.31680328
O 12.97321083 11.81503400 10.01758939
O 14.28082427 12.70582028 12.26130390
O 12.97906753 11.82805974 14.51003361
O 10.39876754 8.19989535 14.56870059
O 10.38881790 12.73627795 14.51126735
O 12.96374314 9.07581808 10.08483276
O 12.98490632 9.09512202 14.57933244
O 9.12483369 11.83343591 16.77963006
O 9.06094897 11.81686502 12.28070512
O 10.37322304 12.71690421 10.04653425
O 10.37045884 8.16471426 10.05984227
O 14.24463860 8.13107912 12.32923328
O 14.23576686 8.15216642 16.84251907
O 14.24818574 12.68356758 16.81377523
O 9.09843700 9.08299301 16.81577402
O 1.32000826 9.00254624 12.32332129
O 5.23537347 11.79734655 10.07959383
O 6.48751468 12.73823956 12.32415065
O 5.23112474 11.78197621 14.57605870
O 2.61969592 8.15856739 14.58346445
O 2.59752305 12.56994630 14.49358973
O 5.21267363 9.06342028 10.10352816
O 5.23510663 9.03915066 14.59561762
O 1.31298492 11.78047060 16.79292563
O 1.31765618 11.75272760 12.26398348
O 2.62223383 12.68842236 10.04797830
O 2.61618111 8.19157284 10.04872980
O 6.51579351 8.14320202 12.34120141
O 6.53281333 8.13058641 16.83654809
O 6.52127805 12.74465394 16.80509490
O 1.31011640 9.02745340 16.82807884
H 9.60049067 1.48783743 11.50294768
H 9.15456107 2.75793749 12.26595141
H 13.46044121 4.81576801 10.81080914
H 13.46435989 4.84335839 9.26036829
H 15.17046733 5.08971625 12.32474986
H 13.82746210 5.06780936 13.09605197
H 12.07994579 4.84913451 14.58373396
H 13.42105037 4.83443048 15.35574146
H 9.93985928 1.20904487 13.77783509
H 11.26185307 1.19464875 14.57128004
H 9.92654699 5.15279607 15.33991321
H 10.38299108 6.41394676 14.57648949
H 13.41924981 1.45169612 9.20722579
H 12.99207667 2.71337401 9.99445494
H 13.38166313 1.45888517 13.78800278
H 12.96533875 2.72717459 14.56184759
H 9.53604075 4.87235561 17.59229636
H 8.18833604 4.86767671 16.82637287
H 9.58799481 4.87272083 13.06208434
H 9.61310309 4.87067409 11.51259595
H 9.97434327 5.09402607 9.24876358
H 11.32665678 5.08947652 10.00552549
H 10.40562913 14.49863847 10.04814205
H 11.31578556 1.14884730 10.02561265
H 13.74501320 1.13671159 11.49617889
H 14.21446130 14.49561040 12.28174854
H 13.75708731 1.13217910 17.65468887
H 13.75588371 1.15544464 16.10634665
H 14.26828086 6.36249660 16.82264538
H 15.18511078 5.11679571 16.80387698
H 9.10261900 2.76810257 16.80191121
H 9.51653295 1.48933514 16.04700367
H 9.10056174 10.04364926 3.30588877
H 9.52761377 8.76674342 2.54247590
H 13.39038793 12.10824199 0.30375564
H 12.05218353 12.14395821 1.07674355
H 13.80447053 12.34780829 2.57542435
H 13.80108240 12.33017905 4.11620181
H 12.90039687 10.78428437 5.58184958
H 12.02969229 12.06460928 5.59559799
H 9.90668238 8.50200103 4.77477843
H 11.23879521 8.46357520 5.56012422
H 9.90006733 12.42000415 6.39171853
H 10.38254230 13.67828895 5.62920047
H 12.95338568 10.03024063 1.14993818
H 13.41512090 8.77384663 1.93110806
H 13.41209625 8.69225929 4.81447550
H 13.40462036 8.70577487 6.36131767
H 9.01322678 10.83006311 7.83206117
H 8.13048139 12.10146884 7.82491845
H 9.57268550 12.15705636 2.57069548
H 9.58331512 12.14017630 4.11981798
H 9.92815279 12.46036310 0.30680318
H 10.36189457 13.71821161 1.09869275
H 10.40891219 7.18046042 1.11243541
H 11.29185797 8.44924699 1.12455090
H 15.17192248 8.45090525 3.36507291
H 14.27174549 7.18946401 3.34612549
H 13.82570195 8.49581010 8.62573554
H 15.16281851 8.52780377 7.85270650
H 13.83158613 12.34433186 6.99227106
H 15.18172061 12.40305102 7.74949844
H 9.46983018 8.72218685 7.02422462
H 8.13991093 8.69071027 7.81456553
H 1.32372264 10.02559725 3.33377123
H 1.77267768 8.75459034 2.57521386
H 5.69666221 12.12297315 1.86808381
H 5.71038622 12.13567704 0.32261356
H 7.41393914 12.36568917 3.38703460
H 6.06115841 12.35618932 4.14312214
H 5.13683177 10.86026652 5.60624272
H 4.26822885 12.14628838 5.56521430
H 2.12465793 8.50710738 4.82688027
H 2.11301502 8.54241927 6.37458025
H 2.17469764 12.45380463 4.76791288
H 2.61366552 13.75187448 5.49311995
H 5.24321131 10.02040585 1.11652579
H 5.66560412 8.76435666 1.91193432
H 4.27087568 8.74383475 5.62425366
H 5.60298651 8.71706393 6.40654751
H 1.81627300 12.21512286 6.99325008
H 1.81198863 12.18946882 8.54447678
H 1.76904831 12.10473770 2.55467715
H 0.42900844 12.10897468 3.33142170
H 2.18351941 12.36153003 0.31589778
H 3.52268321 12.35220518 1.08232698
H 2.65221496 7.19976796 1.10468867
H 3.52918165 8.47189769 1.11501717
H 6.04749918 8.48789845 4.16569872
H 7.38578698 8.49397012 3.38764470
H 6.44515733 7.13577368 7.86059331
H 6.02032734 8.40182940 8.64889430
H 6.46842609 13.69584547 7.79529908
H 6.00838134 12.43426595 7.02607472
H 1.32553372 10.10500574 7.83239101
H 1.76552456 8.84644906 8.62296487
H 1.28362395 2.51142842 3.42178996
H 2.08068135 1.14974616 2.18204603
H 5.17713332 3.48678085 1.12203893
H 5.64736034 4.75397357 1.87492510
H 6.46797417 6.35200108 3.37439933
H 6.02010380 5.08328524 4.13545326
H 4.28559960 4.79381248 5.58546491
H 5.13567483 3.50219875 5.54573529
H 2.05455251 1.15509628 4.61505162
H 2.12912874 1.17697599 6.20209324
H 2.62709980 6.41219756 5.65405814
H 2.18018325 5.13388279 6.39849723
H 4.19343465 1.43777298 1.23593974
H 5.57244998 1.41307252 1.93641136
H 5.50555988 1.40811896 6.33683819
H 4.18388263 1.40649752 5.50301955
H 0.40229740 4.81178205 7.81302434
H 1.29750945 3.55189594 7.81679344
H 1.76173882 4.92067142 2.57497063
H 1.76861819 4.92393583 4.11523887
H 3.52325349 5.08741181 1.04829351
H 2.18017379 5.14015262 0.28377811
H 1.70022334 1.57899006 -0.03227215
H 2.56849540 14.54641429 1.29389285
H 5.99047467 1.12812808 4.15288547
H 6.47517168 14.47515922 3.38848030
H 7.36199866 1.19919729 7.82357081
H 6.04049812 1.17911911 8.62417704
H 6.01754327 5.01559671 8.57827873
H 6.01696590 5.02606852 7.03243350
H 0.39883645 1.45715152 7.80718027
H 1.73774624 1.44499136 8.57300946
H 8.14076644 1.40622446 3.41301590
H 9.49941261 1.41940477 4.16094021
H 13.42954062 4.75557303 0.30645767
H 13.00960094 3.50368673 1.11947063
H 15.15968705 5.13572832 3.32746307
H 13.82151936 5.08808657 2.54379924
H 12.06527458 4.85091632 5.53775991
H 13.40665808 4.86358143 4.76863127
H 11.32402123 1.17596543 5.57083865
H 9.99885697 1.19950787 6.38194884
H 9.89465859 5.10332947 4.76822121
H 10.32631982 6.37694900 5.53318416
H 12.13083204 1.41826779 1.27394229
H 13.51825647 1.43497240 1.99126460
H 13.51856994 1.45752788 4.72807288
H 13.01870922 2.71192332 5.49380797
H 9.51707117 4.84602998 7.01273155
H 8.18471226 4.82935174 7.79862966
H 8.15111518 4.78007314 3.32861308
H 9.03889667 3.51501200 3.34531314
H 11.29963673 5.05363112 1.12403244
H 9.95738827 5.06167207 1.89707103
H 9.93073366 1.22680298 0.37685907
H 9.87981474 1.18894357 1.91967109
H 14.38464620 14.53670082 3.36963285
H 15.37034926 1.16522744 3.39859981
H 13.80269945 1.15060150 6.95681411
H 14.22957502 14.49037268 7.74106028
H 13.80035696 5.13606699 6.99943651
H 14.25320450 6.39355110 7.78128111
H 9.09987801 2.73941339 7.83496874
H 9.54063961 1.47700176 8.60972929
H 0.32702265 1.50601105 12.24259434
H 1.23383020 2.76053853 12.23631304
H 5.16143072 3.49794761 10.07499170
H 4.29052506 4.77829685 10.05450990
H 6.08405046 5.06255421 11.48262587
H 7.43444490 5.08225088 12.24073983
H 5.26116130 3.55304179 14.53899404
H 5.69815699 4.80802638 13.75204126
H 2.86874333 14.34565014 14.07587131
H 2.43991010 1.00896640 13.30064610
H 2.65877079 6.35608148 14.55531331
H 3.55239747 5.09745452 14.53516909
H 5.62448341 1.40833545 10.88814447
H 4.28490848 1.39372974 10.10611089
H 4.48617744 1.38886992 14.36010421
H 5.67264440 1.47418041 15.36987718
H 1.28865196 3.58993277 16.92382480
H 1.76003936 4.77337341 16.01865927
H 1.79920939 4.84691083 13.07438334
H 1.78268884 4.87213316 11.52727030
H 2.15823567 5.12792689 9.25677110
H 2.61948037 6.39662729 10.01163121
H 2.11709692 1.16038153 10.78604809
H 2.59825666 14.48308724 10.06351657
H 7.46684174 1.19524386 12.30344193
H 6.16098459 1.21221152 13.12044782
H 5.98933102 1.18256204 17.66677187
H 7.35239545 1.22925687 16.92292147
H 6.02442157 5.04174847 17.57857511
H 6.03928928 5.08492549 16.02987062
H 0.41180305 1.51961412 17.06267210
H 9.57782932 8.75718165 13.09160635
H 9.56308080 8.73576632 11.54212802
H 13.40808302 12.13530944 9.21869535
H 12.07154026 12.15120131 10.00430758
H 15.18471843 12.37175782 12.24787237
H 13.85002125 12.37994060 11.46498141
H 13.42097144 12.15312591 13.71859547
H 12.07670739 12.16221812 14.48332860
H 9.95786418 8.52152845 15.36245154
H 11.30394855 8.52876333 14.59782655
H 10.36194529 13.69982463 14.51480681
H 9.91667573 12.44496311 13.72504279
H 12.04678028 8.78347056 10.06945645
H 12.94715179 10.03884311 10.06775342
H 13.43280003 8.77086102 13.79132063
H 13.00442491 10.05759873 14.53392281
H 9.57727504 12.11633972 15.97852778
H 9.12353159 10.87102622 16.77655259
H 8.14434562 12.11502111 12.29948378
H 9.04491506 10.85475566 12.29607548
H 9.89169461 12.38357205 9.28166984
H 9.90595290 12.39304143 10.82402349
H 10.38283544 7.20189303 10.02963038
H 9.90131581 8.45697058 9.27099425
H 14.22953182 7.16789779 12.29980410
H 13.79357264 8.44241138 11.53817117
H 13.76712309 8.48351131 17.61559299
H 13.78189696 8.49733327 16.06788774
H 13.80634779 12.40997720 16.00564499
H 14.23532601 13.65002641 16.82095595
H 8.19705615 8.74240470 16.83602440
H 9.53593173 8.74395476 17.60417918
H 0.41492077 8.67680068 12.34871720
H 1.75380749 8.69528975 13.12681359
H 5.68807447 12.13986470 9.30202823
H 5.68719273 12.15586668 10.85139496
H 6.48689355 13.70249921 12.34841523
H 6.02905645 12.43734324 13.11579584
H 5.68007709 12.10694703 15.36314588
H 5.26373482 10.82093582 14.60938662
H 2.18109337 8.47297337 15.38166813
H 3.52192811 8.49082246 14.60947563
H 2.15996257 12.32608151 15.31466111
H 3.50824496 12.27068672 14.55961093
H 5.67107991 8.76773928 10.89673319
H 5.24037779 10.02692468 10.10852129
H 5.69933374 8.70711984 13.82047795
H 5.70199151 8.70028287 15.36656887
H 1.27519759 10.81985106 16.80953447
H 0.40310461 12.09394796 16.80504612
H 1.31652681 10.79122186 12.28996333
H 1.77401353 12.03893837 13.06697700
H 2.18137331 12.34749196 10.83397486
H 3.52931205 12.37090007 10.08179178
H 3.52250102 8.51367461 10.09117176
H 2.18039196 8.47950493 10.85797213
H 7.43187111 8.43955225 12.33166923
H 6.53630058 7.18025261 12.30816174
H 6.50144616 7.16705837 16.85482659
H 6.06464952 8.43806236 17.62098529
H 7.44103184 12.46484955 16.79346738
H 6.51889301 13.70890022 16.82881291
H 0.40559921 8.70092491 16.85738688
H 1.74831025 8.71346138 17.62709466
