383

O 9.10508347 1.74837653 12.32971172
O 12.95117842 4.51770383 10.05092158
O 14.34481911 5.42626741 12.24512367
O 13.11387389 4.47826341 14.54298785
O 10.40724518 0.85092278 14.55852498
O 10.71969039 5.71024134 13.76362711
O 12.97446347 1.75204180 10.07621018
O 13.02333103 1.71563743 14.56390416
O 9.00854792 4.28468222 17.06405596
O 9.02937738 4.51320124 12.17454610
O 10.36634014 5.39928725 9.99228786
O 10.38314969 0.87287644 10.08605443
O 14.31060123 0.83537922 12.29310834
O 14.28143579 0.81440779 16.84562082
O 14.27706254 5.39190707 16.81626731
O 9.06578185 1.68707922 16.84062906
O 9.00719079 9.14334937 3.46562056
O 12.91246860 11.70435386 1.12936864
O 14.23058831 12.71102660 3.28723852
O 13.00615637 11.82603159 5.57088402
O 10.39449105 8.11928090 5.65839884
O 10.41203581 12.72856239 5.63468644
O 12.87282462 9.03269646 1.08887725
O 12.97768491 9.06702060 5.55644045
O 9.11096328 11.81011364 7.84712236
O 9.04684548 11.80982074 3.39564982
O 10.33558365 12.67099534 1.12224476
O 10.53359951 8.16971439 0.92359563
O 14.15085666 8.17732527 3.26797681
O 14.26305540 8.16067401 7.78802365
O 14.28504626 12.73399791 7.84867362
O 9.08315929 9.06084665 7.88719779
O 1.25993158 9.07527175 3.33264995
O 5.18180653 11.83785416 1.11333375
O 6.49624012 12.71924371 3.36244984
O 5.19044084 11.77425308 5.60087355
O 2.57358925 8.17216129 5.57914928
O 2.59742691 12.69141058 5.59176586
O 5.16198493 9.08341646 1.12069568
O 5.16826815 9.04868376 5.59426482
O 1.32198803 11.82329390 7.86319822
O 1.28021706 11.82179853 3.35005122
O 2.60516417 12.75080668 1.13526044
O 2.57702470 8.15840904 1.11718246
O 6.40851283 8.12554658 3.37357245
O 6.50604518 8.13652939 7.80696019
O 6.51923760 12.68738843 7.82135471
O 1.31766232 9.08604243 7.82736653
O 1.30022990 1.75012461 3.33722579
O 5.14788317 4.48740668 1.11518527
O 6.46420737 5.38612450 3.33938732
O 5.16697666 4.49279178 5.56221594
O 2.62275519 0.83341151 5.57366266
O 2.58237272 5.43105844 5.56647812
O 5.21228167 1.73809240 1.07992139
O 5.20231897 1.75527708 5.60680105
O 1.32174937 4.51984430 7.82376280
O 1.26520619 4.50058683 3.34475214
O 2.56291182 5.41346609 1.10868835
O 2.62502867 0.88751956 1.10492197
O 6.49618209 0.85159872 3.33770289
O 6.51683363 0.83290180 7.84199489
O 6.46666502 5.40187190 7.79424172
O 1.30425502 1.78060523 7.78995794
O 9.11563231 1.76479719 3.32865473
O 12.88514844 4.54201233 1.06085943
O 14.20332355 5.45069471 3.35022146
O 12.98902012 4.50052114 5.57983295
O 10.39268138 0.87511799 5.57723939
O 10.39309295 5.40082685 5.59694011
O 12.92050020 1.81879130 1.06416276
O 12.98369377 1.76895889 5.54659338
O 9.05420625 4.47734319 7.76280359
O 9.04898169 4.55460892 3.34031908
O 10.46358218 5.62148905 1.03735774
O 10.37210221 0.80624561 1.10261969
O 14.22070847 0.87123665 3.27035175
O 14.24847890 0.86611779 7.80058474
O 14.28406990 5.42712005 7.83955885
O 9.09444188 1.75131305 7.82486820
O 1.35085003 1.77286885 12.28504719
O 5.21129281 4.49308341 10.06799925
O 6.48714034 5.40631009 12.28960665
O 5.21852678 4.50191101 14.56149796
O 2.63212110 0.86311982 14.55084770
O 2.60196229 5.42217803 14.57805898
O 5.21347959 1.74864624 10.06533691
O 5.21054412 1.77130674 14.56870589
O 1.29362879 4.50552851 16.81892898
O 1.36093451 4.50305722 12.32305707
O 2.62769680 5.39638912 10.07347241
O 2.61138163 0.87534665 10.03807226
O 6.50002967 0.85424016 12.32336934
O 6.52131970 0.80305627 16.81046366
O 6.43532760 5.41208573 16.79042847
O 1.31873851 1.74800392 16.80159469
O 9.04324812 9.13858064 12.30265011
O 12.96487700 11.78601533 10.05775157
O 14.30433966 12.69774026 12.28268551
O 13.01572147 11.80582359 14.56799343
O 10.44566312 8.33752329 14.59544678
O 10.41565782 12.70229518 14.58969551
O 12.97993708 9.04705330 10.05748102
O 13.02591679 9.09501595 14.51920433
O 9.08171057 11.71710416 16.83180810
O 9.08939068 11.85047310 12.32053755
O 10.39319311 12.73612602 10.09422972
O 10.38634984 8.13885822 10.10024388
O 14.28509151 8.16652426 12.29149775
O 14.30399234 8.13962308 16.71915606
O 14.21670080 12.67513390 16.89003565
O 9.25294965 9.05595942 16.88990557
O 1.35551974 9.05501171 12.33075263
O 5.22058907 11.79446438 10.06336999
O 6.47666544 12.71590601 12.33026902
O 5.19979523 11.81280736 14.57664730
O 2.64818054 8.16682136 14.56549304
O 2.60220715 12.72719976 14.59955020
O 5.17167917 9.05485483 10.01715781
O 5.23121596 9.06734414 14.54764095
O 1.29134131 11.84778569 16.84042046
O 1.37121367 11.80428822 12.32102358
O 2.65219594 12.74499748 10.08562262
O 2.58144370 8.13693130 10.05942640
O 6.47982850 8.14846881 12.27176853
O 6.52128673 8.13717935 16.84353389
O 6.52056430 12.66200014 16.82069757
O 1.38415790 9.09380038 16.78472947
H 9.54666425 1.43239708 13.12647623
H 8.20050270 1.42416193 12.36285506
H 12.93638964 3.55629220 10.06277508
H 12.03118787 4.80764148 10.04714080
H 13.83808919 5.13314394 11.48173094
H 14.29355920 6.38782485 12.25892229
H 13.07685521 3.51876649 14.52810939
H 13.56973903 4.75871968 13.74623047
H 10.43565094 14.49098033 14.57854740
H 11.32098384 1.15167469 14.56524019
H 11.47222611 5.28295359 14.16476714
H 10.60635042 6.56466743 14.17771529
H 12.06564555 1.43198405 10.06362688
H 13.39330315 1.43597865 9.26986833
H 13.49396986 1.38253858 13.79483682
H 13.48332864 1.38819970 15.34274565
H 8.17081205 4.72699966 16.94927986
H 9.07962799 3.56080743 12.28224997
H 9.61251857 4.91359436 12.84337223
H 9.87660035 5.06092653 10.75334183
H 9.90244130 5.08356828 9.21097533
H 9.91110399 1.20157451 9.31409160
H 9.91703654 1.19913400 10.86535158
H 14.29954597 14.47477726 12.26413127
H 13.83362097 1.13976985 11.51395198
H 14.23409645 14.45605326 16.90073511
H 13.79654656 1.16192670 17.60268511
H 13.82854337 5.06520542 16.02735755
H 13.76128054 5.09834628 17.57713626
H 9.54147511 1.45482195 16.04023970
H 9.06740620 2.66098661 16.90890570
H 8.13089597 8.75770740 3.43907551
H 9.46717532 8.74858465 4.20728068
H 12.87793391 10.73093373 1.11645649
H 11.99998131 12.00981205 1.12662922
H 14.19840815 13.67083231 3.23323535
H 13.75474554 12.36346536 2.52088392
H 13.48636190 12.14938110 6.33825327
H 13.45943453 12.15620815 4.78731993
H 11.28876240 8.47323859 5.63852758
H 9.97274509 8.46062017 6.45208460
H 10.42947410 13.69071604 5.60871596
H 11.32750341 12.43278626 5.60271533
H 13.32630389 8.73070685 0.30435635
H 11.91231448 8.67625851 1.02370671
H 12.99093905 10.02823844 5.53328379
H 13.38173839 8.76591450 4.73222021
H 9.56632263 12.15120515 8.62399729
H 9.59227642 12.13719137 7.07817436
H 9.04520300 10.84066615 3.43186328
H 9.52530225 12.11201601 4.17108743
H 9.86796714 12.34533777 1.89764504
H 9.87692972 12.31967362 0.35007265
H 10.47691240 6.62606367 0.99900737
H 10.07496294 8.48668375 1.68990192
H 15.04796472 8.51445712 3.23365758
H 13.69087967 8.48294134 2.46442008
H 15.16408889 8.49786163 7.77235016
H 13.82986140 8.48309464 6.98880091
H 13.80534294 12.42458383 8.62451791
H 14.25467747 13.69661795 7.86104942
H 9.54218736 8.76545981 8.68177085
H 9.10035912 10.02298106 7.89412410
H 1.71084259 8.77662855 4.12810382
H 1.27975026 10.03717056 3.35094477
H 5.66498151 12.15330771 1.88399934
H 5.67102412 12.13520400 0.33763157
H 6.05520183 12.37420214 4.14419376
H 7.40408157 12.38973720 3.39071700
H 4.27607604 12.07380314 5.59639473
H 5.16495283 10.81039407 5.59260472
H 2.14974824 8.50744131 6.37625391
H 3.48429260 8.48627016 5.59932920
H 2.11285611 12.37428727 4.82161114
H 2.13034416 12.37296940 6.37086513
H 4.24694673 8.78669216 1.11819151
H 5.14690134 10.04501938 1.12188565
H 5.65785142 8.71946238 6.35481346
H 5.61706234 8.71005851 4.80833366
H 1.76995541 12.16095865 8.64558794
H 0.41834603 12.15773006 7.89083674
H 1.73390189 12.15686765 2.56922399
H 0.37347038 12.14522040 3.30303811
H 2.63462016 13.71348112 1.12687077
H 3.52035752 12.44816501 1.12240783
H 2.10361106 8.45231734 1.90278143
H 2.56360915 7.19548615 1.12682829
H 5.98579346 8.44203044 2.56884943
H 6.42316047 7.16424098 3.32331767
H 7.42018772 8.43987003 7.83505266
H 6.52708196 7.17373818 7.80258482
H 6.07928840 12.35467146 7.03164200
H 7.42655341 12.36327053 7.79944343
H 1.75620775 8.76726169 8.62366153
H 1.33131566 10.04808748 7.86653083
H 1.78632990 1.44357404 2.56383950
H 1.76745207 1.41114850 4.10691721
H 5.14416909 3.52587924 1.09275483
H 4.23019898 4.77637624 1.11554748
H 6.03652164 5.05642610 2.54196686
H 7.38220417 5.08639415 3.31307733
H 5.61604590 4.81146833 4.76899149
H 4.26805221 4.83512997 5.53259817
H 2.63803934 14.47270657 5.58275960
H 3.53945851 1.12926435 5.58233206
H 2.13823676 5.13651499 6.36838613
H 2.56793020 6.39424042 5.58280626
H 5.67673003 1.42010166 1.86112369
H 5.69496308 1.40683242 0.31385709
H 5.67166124 1.46779552 6.39605907
H 5.20076635 2.71872019 5.61237894
H 1.76106428 4.83226802 8.62178460
H 0.41646286 4.85058225 7.85501322
H 1.28171267 3.53859433 3.36654389
H 1.73074675 4.80443875 4.13036063
H 2.09587265 5.08739813 0.33079097
H 2.08820048 5.08018753 1.87676962
H 2.18869265 1.20373612 0.30646237
H 3.53555598 1.20333034 1.07285195
H 6.04822023 1.15655582 4.13181116
H 6.48681200 14.49069024 3.36901236
H 7.43268600 1.13336488 7.83566129
H 6.54061130 14.47250755 7.82963377
H 5.98277250 5.07709776 7.02721564
H 6.01482186 5.07181614 8.57771224
H 1.32436280 2.74351631 7.77179370
H 1.77102021 1.47317311 7.00577973
H 8.20957292 1.44500817 3.31190149
H 9.54085619 1.42638059 2.53184257
H 13.31954561 4.86311332 1.85344153
H 11.99748170 4.94618255 1.05478097
H 15.11863765 5.15931848 3.33236669
H 14.20808061 6.41455141 3.30890983
H 13.43367740 4.85833114 4.80077297
H 13.46166951 4.83142739 6.34894842
H 11.29555612 1.20841039 5.54766214
H 9.95566892 1.19149852 4.77749733
H 10.42097535 6.36466944 5.60883630
H 11.30664132 5.09844736 5.59130175
H 12.86398134 2.78320769 1.05643877
H 12.01633313 1.48522684 1.07290261
H 13.42114163 1.47244218 4.74090614
H 12.99993889 2.73280760 5.53279465
H 8.15245724 4.81113093 7.73965871
H 9.50577072 4.81655460 6.97998696
H 9.10024825 3.59659411 3.31709033
H 9.52562828 4.83299816 4.12622139
H 9.98350309 5.36750044 1.82067768
H 9.52376327 4.80026375 -0.25399613
H 9.90556180 1.09508427 0.30735800
H 10.35815178 14.44494118 1.09508332
H 13.78508415 1.23306852 2.48924807
H 15.13011963 1.18440285 3.25868626
H 15.15161648 1.19919943 7.78096617
H 13.81973895 1.18733623 6.99935374
H 14.25909134 6.38999159 7.84298999
H 13.80400938 5.12974030 8.62031891
H 9.55351098 1.45387803 7.03152504
H 9.08608710 2.71483025 7.78739406
H 0.43747921 1.46659773 12.29480601
H 1.32392890 2.73621361 12.30866590
H 5.23014304 3.53100408 10.08937464
H 5.67053126 4.79756449 10.86081990
H 6.07280761 5.08707313 13.09785574
H 7.39892415 5.08354225 12.29384306
H 5.65172431 4.83804788 15.35887450
H 4.31532514 4.82905718 14.58509643
H 2.20918316 1.19163397 13.75157792
H 3.53824018 1.19329381 14.54292763
H 2.14213530 5.12695970 15.37092178
H 2.60760785 6.38488957 14.60032531
H 5.65531254 1.41396372 9.27747158
H 4.30325279 1.43760225 10.03098496
H 5.23357481 2.73544174 14.55969329
H 5.67129386 1.47584830 13.77725577
H 1.27928968 3.54398643 16.80588720
H 0.37144920 4.79595353 16.82193608
H 0.46013851 4.84879534 12.30764057
H 1.77448163 4.83641282 13.12753550
H 2.20672517 5.06632956 10.87542770
H 3.53506692 5.07215327 10.08545742
H 2.13573488 1.20175531 9.26757657
H 2.14890174 1.20846108 10.81593739
H 6.47791386 14.49381040 12.30946455
H 6.04612118 1.15009540 11.52827560
H 7.42925914 1.13857276 16.79575593
H 6.08766963 1.14831749 16.02519738
H 6.47737543 6.37388678 16.82826593
H 5.98779840 5.12239703 17.58874065
H 0.42071147 1.39804004 16.79906111
H 1.74907118 1.42971540 16.00214524
H 8.15326768 8.77399737 12.28419689
H 9.50750230 8.76386715 11.54878687
H 12.93852734 10.82298188 10.05137669
H 12.05226326 12.09361576 10.07963256
H 15.20745957 12.36616816 12.26384972
H 13.85861747 12.35377073 11.50214891
H 13.03575346 10.84029673 14.54371367
H 13.47154871 12.10811126 13.77828871
H 9.91802369 8.66086372 13.86516174
H 9.99397099 8.57874128 15.41961468
H 9.97814605 12.38710012 13.79384903
H 11.31804733 12.36896729 14.56145746
H 13.44230635 8.72370680 9.27802502
H 13.46157089 8.72672438 10.82880260
H 13.45700089 8.74129332 15.30656959
H 12.09983916 8.81714398 14.56040165
H 9.55421781 12.01762059 16.05237225
H 9.14903684 10.74548001 16.84865329
H 8.17565442 12.15093163 12.33292602
H 9.05508589 10.88600548 12.30839450
H 10.38478686 13.69917292 10.11080583
H 9.92536401 12.44329446 10.88523024
H 10.39703773 7.17537427 10.08106721
H 11.30487989 8.42462674 10.09765435
H 15.18872750 8.49328725 12.33402322
H 13.83590550 8.48787499 13.08402121
H 15.21577554 8.43510979 16.74900616
H 14.31610497 7.17848281 16.75726361
H 13.77492629 12.36145255 16.09438779
H 13.73395713 12.30880514 17.64229114
H 8.37339576 8.68765331 16.92514204
H 9.76523430 8.69273506 17.69078291
H 1.37809300 10.01699667 12.34391692
H 1.81618339 8.75758537 13.12408373
H 5.21043705 10.83164610 10.03130993
H 5.68780702 12.08967612 9.27433648
H 6.02150559 12.36882316 11.55693955
H 6.00732066 12.39095324 13.10634153
H 4.29562527 12.13842631 14.62322553
H 5.65180369 12.11990436 15.37107161
H 3.55880723 8.48250944 14.57904370
H 2.22402391 8.51146965 15.36021773
H 2.12766243 12.44161811 15.38798715
H 2.60078712 13.69019120 14.60676725
H 5.61294049 8.71775855 9.23007835
H 4.26806950 8.72410027 10.00053144
H 5.24267050 10.02894187 14.53021427
H 5.68129263 8.76668676 13.75233809
H 0.37380172 12.14009526 16.88468229
H 1.72915422 12.17878182 17.63116819
H 1.84951975 12.14889528 11.56001690
H 1.81380760 12.14103286 13.10732139
H 3.56673887 12.44296715 10.06909176
H 2.66940956 13.70800244 10.07232205
H 2.15127579 8.43461609 10.86874491
H 2.58261528 7.17393187 10.08265477
H 6.47653608 7.18488706 12.26650757
H 6.01552082 8.43406037 11.47994295
H 6.08171035 8.47885344 16.06276618
H 6.04521085 8.48525609 17.60104953
H 6.56550314 13.62413841 16.81303482
H 7.42901670 12.33387838 16.81805924
H 1.80501462 8.79008557 17.59589920
H 1.35844639 10.05448728 16.82542069
