381

O 9.08176613 1.76275905 12.30188453
O 13.00492801 4.43281448 10.03111183
O 12.93706991 4.58385591 14.55440140
O 10.37741309 0.86523968 14.53930567
O 10.38677139 5.41981341 14.54412449
O 12.99363102 1.75514549 10.08531684
O 12.96171413 1.75984735 14.54509935
O 9.08638580 4.49658675 16.75810781
O 9.09220729 4.50126226 12.32287950
O 10.37484478 5.40769850 10.06792453
O 10.37438302 0.84934736 10.06465460
O 14.27649411 0.82189437 12.29592092
O 14.27089996 0.85607105 16.80063204
O 14.28063211 5.45609664 16.84660717
O 9.07613241 1.74480116 16.79238296
O 9.08935359 9.04678074 3.34524314
O 12.96043100 11.81950775 1.09114286
O 14.25361401 12.71384825 3.34740816
O 12.96332111 11.80143778 5.58562542
O 10.40250896 8.15255537 5.57825199
O 10.37973755 12.69870371 5.56726189
O 12.96277204 9.07786809 1.08418508
O 12.99444161 9.06803996 5.58293463
O 9.09012059 11.81071683 7.82599513
O 9.06754885 11.79757436 3.34147592
O 10.37176035 12.71840274 1.10560681
O 10.38423257 8.15460246 1.09682101
O 14.27119575 8.15317425 3.32415776
O 14.27378953 8.14577448 7.81465721
O 14.26933965 12.72846230 7.80625594
O 9.08556869 9.07458119 7.80042505
O 1.32243691 9.05699208 3.33606596
O 5.21212158 11.78545556 1.06210460
O 6.48254024 12.72325526 3.31218927
O 5.19386359 11.84081763 5.57414102
O 2.60837052 8.17295466 5.58155995
O 2.59343928 12.72514050 5.58668944
O 5.19496413 9.04754074 1.10022066
O 5.19533465 9.09257486 5.59714735
O 1.32167127 11.80012792 7.84305359
O 1.31738497 11.79904330 3.34975173
O 2.62898053 12.70210089 1.11355606
O 2.60649431 8.13406719 1.10146871
O 6.49201410 8.17701143 3.35549950
O 6.49631539 8.14027304 7.81237778
O 6.49839475 12.72097268 7.81469023
O 1.32065926 9.06324671 7.82388187
O 1.30478418 1.76369012 3.33307923
O 5.21493262 4.50718817 1.08343968
O 6.49274409 5.43965902 3.31249997
O 5.23490752 4.49378118 5.55910918
O 2.60686387 0.86175955 5.57966741
O 2.65512033 5.43266167 5.54797373
O 5.18783585 1.76785600 1.09789502
O 5.20265770 1.75022278 5.58616182
O 1.36462908 4.51819202 7.78747141
O 1.32993558 4.50386522 3.33989418
O 2.62632918 5.39632097 1.09794089
O 2.60705814 0.84620567 1.09422797
O 6.48877445 0.86568548 3.33847069
O 6.49849629 0.85766828 7.82990408
O 6.52036213 5.39614649 7.81126029
O 1.32851352 1.77721537 7.82911448
O 9.08101159 1.77572833 3.33596557
O 12.94764049 4.49591978 1.11443790
O 14.27616811 5.41089736 3.32350423
O 12.97358567 4.48369980 5.54157658
O 10.37271163 0.84044875 5.56986010
O 10.38482332 5.40716688 5.56488583
O 12.95873565 1.76090598 1.08686962
O 12.96646980 1.73942528 5.58693204
O 9.11172783 4.50130867 7.82576832
O 9.07939292 4.51359773 3.32298589
O 10.35012887 5.40854726 1.07761477
O 10.36921958 0.85412603 1.10079761
O 14.25207854 0.85426938 3.33153857
O 14.27006284 0.85554036 7.84291282
O 14.29452787 5.43511743 7.75638891
O 9.07916586 1.76690171 7.81652517
O 1.36400477 1.72403832 12.32209810
O 5.21764320 4.48758832 10.06050889
O 6.48538706 5.41098487 12.31559712
O 5.16619413 4.50198328 14.56201782
O 2.62399282 0.82090841 14.57582326
O 2.55343326 5.43226820 14.57228393
O 5.20096738 1.75255398 10.07898745
O 5.19629285 1.75537481 14.54229356
O 1.32211684 4.50652026 16.81746409
O 1.31654658 4.50668117 12.38635938
O 2.62077572 5.43047860 10.07532674
O 2.61543568 0.82169632 10.05410584
O 6.50240797 0.85078007 12.31298210
O 6.47357342 0.83857362 16.79861459
O 6.50527828 5.41022329 16.78399108
O 1.32363144 1.76456533 16.80260620
O 9.10090167 9.05691556 12.29875869
O 12.96101903 11.81955551 10.03540094
O 14.25284748 12.69912245 12.29613390
O 12.96343815 11.80918128 14.54513774
O 10.37443039 8.17777562 14.55446077
O 10.37917511 12.72491181 14.54538474
O 12.96804010 9.09938456 10.04757169
O 12.97584237 9.09223794 14.58507478
O 9.10798547 11.80156923 16.79867462
O 9.10197369 11.79445562 12.30633719
O 10.37811783 12.72395864 10.05957013
O 10.37285020 8.16358892 10.04088890
O 14.14735446 8.12880547 12.38895980
O 14.27535017 8.17487089 16.79555753
O 14.27086864 12.70769014 16.79472097
O 9.08192661 9.05787096 16.79961343
O 1.28220816 9.05455256 12.30834212
O 5.24157035 11.79438815 10.06968644
O 6.51678651 12.71364151 12.30818958
O 5.21190656 11.80758087 14.54381118
O 2.62367567 8.16028945 14.54889289
O 2.61607227 12.67990091 14.54360186
O 5.22504969 9.04401442 10.05939274
O 5.19473004 9.07150032 14.53914947
O 1.32986613 11.81458306 16.80577552
O 1.29605788 11.77741862 12.29787846
O 2.63849007 12.68996356 10.08575234
O 2.60938925 8.16402163 10.06627155
O 6.51433543 8.15588435 12.31108050
O 6.48524929 8.15376129 16.79412428
O 6.51658008 12.70594511 16.77008165
O 1.34039146 9.07131090 16.80054462
H 9.09744685 2.72598659 12.32551372
H 9.54425239 1.46347675 13.09238265
H 13.42355111 4.78816607 9.24719857
H 12.11945991 4.79651534 10.05460744
H 13.40652382 4.85317154 15.34434761
H 12.97235675 3.62737526 14.53391518
H 11.28357517 1.19437830 14.56076037
H 9.94170770 1.19105122 15.33346622
H 10.40059107 6.38084754 14.54754075
H 11.31208474 5.13065178 14.54106867
H 12.97306921 2.72504049 10.07063554
H 12.07861900 1.46027956 10.07684471
H 13.43226222 1.43509656 15.31803054
H 13.43302001 1.42753927 13.77617334
H 9.55637810 4.79071298 15.96885438
H 9.09528239 3.53418089 16.74973222
H 8.18876788 4.82874728 12.35013463
H 9.53718950 4.83688746 13.10994196
H 9.92878525 5.10764599 10.86598353
H 10.36276921 6.36829819 10.08822591
H 9.90853762 1.18030288 9.29011654
H 9.90744121 1.18743352 10.83612249
H 13.83503507 1.17182086 11.51170969
H 15.17968716 1.14770597 12.27690552
H 15.18543044 1.15688887 16.79992119
H 14.29428808 14.49620790 16.79870061
H 13.83282775 5.10990558 17.62455615
H 15.17612875 5.10542815 16.86231667
H 8.17097302 1.41910327 16.81354381
H 9.50938859 1.42117143 17.58902115
H 9.55499895 8.72040227 2.56799113
H 9.56694958 8.71754598 4.11412055
H 12.05608336 12.15053901 1.11693557
H 13.39726445 12.14405724 1.88555594
H 15.15751496 12.38366256 3.36667697
H 13.81945243 12.38061664 4.14015024
H 12.98612291 10.83851228 5.60696180
H 13.42834599 12.10989162 6.37077581
H 9.95764817 8.48943571 6.36306240
H 11.30609016 8.48362062 5.60344609
H 11.28602842 12.37250280 5.58949185
H 9.94951079 12.37879759 6.36695396
H 12.97295125 10.04086778 1.07346383
H 13.43067493 8.78556522 0.29509280
H 13.45697504 8.74075410 4.80460469
H 13.46475189 8.72876583 6.35225422
H 8.18848339 12.14847020 7.83655035
H 9.51968932 12.14116747 8.62260710
H 9.08817331 10.83510378 3.35679077
H 9.53229912 12.09369667 4.13178179
H 9.91087571 12.41840068 1.89603222
H 10.35475058 13.68160923 1.12138518
H 11.28719323 8.48917892 1.07171846
H 9.94471462 8.48505873 0.30655829
H 14.25448721 7.19011868 3.30393744
H 13.80536824 8.45647700 2.53818886
H 13.81328903 8.44531119 8.60380182
H 14.25867063 7.18062584 7.82288098
H 14.29560743 13.69222415 7.81280807
H 15.18297389 12.42541015 7.82453191
H 8.17366696 8.76634552 7.80319282
H 9.05564701 10.03744162 7.81372193
H 1.75619429 8.72098070 2.54434560
H 0.41542104 8.73311737 3.31059360
H 5.21924743 10.82240383 1.05240192
H 5.67290693 12.07989814 0.26967866
H 6.05822242 12.38647173 2.51636581
H 7.38489774 12.38660595 3.30861794
H 4.28834698 12.16790535 5.55726003
H 5.62174418 12.15749701 4.77176382
H 2.61925906 7.21031970 5.55047260
H 2.15427867 8.46772276 4.78435670
H 2.13318616 12.39217731 6.36396706
H 2.12519484 12.38480366 4.81655776
H 4.29194498 8.71421315 1.12725484
H 5.63398084 8.73437714 1.89831617
H 5.17327310 10.05529145 5.59765671
H 4.27960664 8.79446345 5.58762323
H 1.79068055 12.08873775 8.63255859
H 1.32738724 10.83704130 7.85356043
H 1.33277454 10.83643679 3.32293216
H 1.78065934 12.10266309 2.56191115
H 2.18970409 12.38533633 0.31757275
H 3.53196068 12.36837691 1.08080002
H 2.15935691 8.44079427 0.30581500
H 2.59705130 7.17129196 1.07684852
H 7.40248695 8.49142987 3.37349015
H 6.06068606 8.51883282 4.14540968
H 6.50067138 7.17755984 7.78413244
H 6.03492126 8.44532347 7.02392986
H 6.03911911 12.43304036 7.01849873
H 6.48880717 13.68417660 7.80563964
H 0.41750619 8.72872149 7.80018095
H 1.75743276 8.73971711 7.02803019
H 0.39948813 1.43501756 3.31271913
H 1.73884511 1.43591715 2.53861787
H 5.68149875 4.85146944 1.85295066
H 5.68537714 4.82992250 0.30727279
H 6.47661406 6.40198110 3.35070335
H 6.05124833 5.12284394 4.10754008
H 5.68931443 4.78743825 6.35586164
H 5.23454408 3.53087809 5.58355421
H 2.58505589 14.50099207 5.56220069
H 2.14803868 1.16088621 4.78762403
H 2.20517123 5.09337475 4.76648178
H 3.55649870 5.09507879 5.52224222
H 5.21154412 2.73075568 1.10954371
H 5.65049545 1.47108157 1.88889672
H 5.63487279 1.42715920 6.38398634
H 4.29568535 1.42718237 5.60662300
H 1.84118886 4.85133186 7.01969872
H 1.81757915 4.85227650 8.56640062
H 0.41723286 4.81319925 3.33217368
H 1.29350353 3.54129283 3.33856919
H 2.19416760 5.06946202 1.89444118
H 3.53521561 5.07699114 1.11579525
H 3.51958975 1.15502751 1.10163424
H 2.64021754 14.48597118 1.10230307
H 6.48004756 14.50490461 3.34288235
H 6.03249197 1.14985473 4.13785472
H 7.40200483 1.19308648 7.83806335
H 6.07043391 1.18350135 8.62802215
H 6.08443458 5.06811240 8.60403883
H 7.42916581 5.07648366 7.83911795
H 1.77736473 1.46711468 7.03529240
H 1.35462227 2.73941619 7.79816921
H 8.16559785 1.47712934 3.33503783
H 9.05803835 2.73890677 3.33315751
H 12.03264554 4.79401114 1.09808381
H 12.92781847 3.53301921 1.10020930
H 13.80540353 5.07858770 4.09598501
H 13.79985989 5.07885793 2.55445664
H 12.06030774 4.78853379 5.55581470
H 12.94543793 3.52153753 5.56402824
H 10.36001366 14.48014926 5.54395415
H 9.91775216 1.14803001 4.77886304
H 9.92025372 5.11687912 4.77286354
H 10.38201120 6.36974140 5.55061281
H 13.42875884 1.43026332 1.85951144
H 13.43142741 1.43678906 0.31262236
H 12.06266463 1.40762107 5.60485626
H 13.39763740 1.42605110 6.38878477
H 9.57692996 4.83262310 7.05070907
H 9.58464535 4.82668573 8.60090677
H 8.17814026 4.85120831 3.30217002
H 9.51033163 4.83282610 2.52227950
H 10.35374372 6.37116730 1.05949652
H 9.90862029 5.11392210 0.27396310
H 11.27634097 1.17754772 1.11368758
H 9.93795114 1.19801536 1.89039016
H 14.24162881 14.49378096 3.35832825
H 13.80038671 1.15378409 4.12801795
H 13.83750956 1.18109742 8.64129288
H 15.16934809 1.19818965 7.85337164
H 15.19650680 5.10319414 7.74346198
H 13.85404940 5.08637865 6.97529030
H 9.53502988 1.45794169 7.02692356
H 9.11195610 2.72976796 7.79691140
H 1.39136597 2.68121569 12.35953064
H 1.80892539 1.40851649 13.11721214
H 5.18416173 3.52460204 10.05971509
H 4.30717214 4.79636086 10.06079335
H 6.00508827 5.08296650 13.08164494
H 6.03223232 5.07099209 11.53703681
H 5.61642659 4.83004959 15.34806710
H 4.26562254 4.83518918 14.59515526
H 2.64451343 14.46018625 14.56919426
H 3.53980165 1.12024116 14.56286737
H 2.56861103 6.39608493 14.59224969
H 2.11448546 5.13496491 15.37877594
H 4.30000469 1.41370167 10.08904845
H 5.63525883 1.42240225 10.87311282
H 5.19693618 2.71771917 14.52587520
H 5.66594530 1.46071469 13.75420280
H 1.78974529 4.79159294 17.61064937
H 1.32978516 3.54316747 16.82354923
H 0.39351928 4.69405429 12.46643453
H 1.73922729 4.85614523 13.18722598
H 2.60975220 6.39426321 10.09265674
H 2.15154880 5.13785270 10.85715051
H 2.15295984 1.14492525 10.83364944
H 2.14668903 1.16448235 9.28518719
H 6.53092026 14.49005820 12.31008768
H 7.41710469 1.15477581 12.30659502
H 6.01201294 1.17124302 16.02204059
H 6.00407100 1.17339515 17.56970828
H 7.42036913 5.10775725 16.76808148
H 6.52778152 6.37265929 16.78707188
H 1.78816698 1.42991788 17.57750998
H 1.79436565 1.42577727 16.03423737
H 8.19576738 8.72752393 12.28866879
H 9.52469856 8.73043867 11.49778002
H 13.39797712 12.15222980 9.24367362
H 12.05560296 12.14967065 10.01950669
H 14.25050674 13.66367890 12.27994941
H 13.79615277 12.41230976 11.49838503
H 12.06104182 12.14673272 14.52627730
H 13.39866263 12.13412600 13.74942999
H 9.95231283 8.49625206 13.74936939
H 11.27493156 8.51418033 14.55190591
H 9.93313131 12.42413356 15.34406671
H 10.36355066 13.68823893 14.56231857
H 12.97636046 10.06403708 10.05292757
H 13.38816961 8.81465146 10.86006361
H 13.43688561 8.79089934 15.37740174
H 12.98387780 10.05698779 14.59742084
H 9.55773003 12.09672143 17.59755706
H 9.11040652 10.83868100 16.81472484
H 9.11609837 10.83152084 12.32237417
H 9.55163747 12.09573599 13.10286871
H 10.36038905 13.68776614 10.08355320
H 9.93304086 12.41674415 10.85637499
H 9.93602428 8.48712328 9.24584607
H 11.27421951 8.49712549 10.01719334
H 13.72170629 8.47166675 13.19176652
H 13.96670304 7.20077776 12.37962411
H 14.29104770 7.20994919 16.81720133
H 15.19246397 8.46681220 16.80056981
H 13.79519203 12.38767820 17.56873744
H 13.79650865 12.38609684 16.02164774
H 9.51235945 8.73160034 16.00194315
H 8.17592676 8.73324604 16.78177817
H 0.37797031 8.74047799 12.32811690
H 1.24664033 10.01904794 12.30522319
H 5.25025366 10.83212224 10.04537107
H 5.68345371 12.09687367 9.26881797
H 7.41941170 12.37782662 12.29144395
H 6.08642673 12.38419386 11.51164006
H 5.68193897 12.14170074 13.77219035
H 5.68344062 12.13594382 15.31776425
H 2.18117497 8.48803566 13.76060426
H 3.53051888 8.48722222 14.51797572
H 3.52164906 12.35154766 14.52456403
H 2.17886626 12.34982408 13.75251322
H 5.65279754 8.70765967 9.26392659
H 4.31597938 8.73036274 10.03998833
H 5.22089187 10.03462024 14.52311838
H 5.66768100 8.76845239 13.75673234
H 0.42302508 12.13843583 16.78589643
H 1.76011369 12.13872977 16.00776657
H 0.39733142 12.12486915 12.27519618
H 1.74456702 12.10899229 11.51224156
H 3.55588335 12.39811769 10.08260585
H 2.65203527 13.65309270 10.07063955
H 2.13596742 8.49756002 10.83417370
H 2.14015028 8.48760440 9.28890678
H 6.05736045 8.44958199 11.51577298
H 6.49410634 7.19298551 12.29827549
H 6.01464975 8.47165157 17.57199378
H 6.01529741 8.48859209 16.02402010
H 7.43540620 12.41748495 16.78014828
H 6.52325211 13.66922265 16.78489361
H 1.79639710 8.78370345 16.00352633
H 1.34661443 10.03459517 16.78969752
