381

O 9.08328666 1.75829061 12.31915002
O 12.92644487 4.51552496 10.04087702
O 14.24557104 5.40307897 12.28928749
O 12.97803120 4.50976692 14.55302367
O 10.39078133 0.86061968 14.56016588
O 10.39004710 5.40307620 14.55956607
O 12.98187643 1.77877550 10.05075839
O 12.97758496 1.76159694 14.55921533
O 9.06955240 4.49658039 16.78830649
O 9.07976719 4.50880899 12.32961937
O 10.34320788 5.42537798 10.03862308
O 10.40097100 0.84748362 10.09073736
O 14.25627225 0.86611345 12.29885307
O 14.29613515 0.87659873 16.79434557
O 14.27448892 5.45328807 16.78600955
O 9.09504797 1.76179415 16.80536670
O 9.03950496 9.07578285 3.30672015
O 12.98667666 11.80746427 1.11322486
O 14.28958626 12.72667332 3.34546580
O 12.99946059 11.84149982 5.58796666
O 10.29677712 8.20402947 5.48279636
O 10.39445148 12.73214440 5.54301309
O 12.96110812 9.06979036 1.10215996
O 12.97249172 9.07574764 5.56061603
O 9.09125944 11.80537636 7.82676159
O 9.08087777 11.79317103 3.34853807
O 10.39755971 12.69268772 1.11275823
O 10.37244156 8.15721920 1.08292819
O 14.26243800 8.15786777 3.33633898
O 14.26607570 8.16634593 7.80999521
O 14.27672892 12.75967699 7.84161013
O 1.30944878 9.05725954 3.35467240
O 5.20092905 11.81569106 1.10027678
O 6.49055591 12.70717642 3.34961000
O 5.20412607 11.77376531 5.60549941
O 2.62514415 8.15326493 5.56967205
O 2.62885290 12.68922143 5.58233812
O 5.18276858 9.07942475 1.09387745
O 5.21911007 9.01716523 5.56265501
O 1.32120042 11.81976664 7.82789723
O 1.33017482 11.80331544 3.34068828
O 2.61564221 12.73196427 1.10472834
O 2.61283105 8.13909218 1.11710546
O 6.48427091 8.14941299 3.32081316
O 6.55433982 8.13574513 7.71450790
O 6.54600505 12.67536828 7.81014069
O 1.33042597 9.07360828 7.81400686
O 1.32378113 1.73059961 3.34384914
O 5.18517159 4.51265468 1.11543348
O 6.50638297 5.40625035 3.34000510
O 5.20543132 4.47651759 5.57764567
O 2.64518182 0.82769366 5.57163565
O 2.62895382 5.40345059 5.56149368
O 5.20803394 1.76643349 1.09279623
O 5.22864772 1.74474306 5.55863483
O 1.30365838 4.50883189 7.79767247
O 1.30737723 4.47555418 3.34939714
O 2.60114607 5.40427788 1.11631810
O 2.61239219 0.87232961 1.07938106
O 6.52405174 0.84743778 3.31530503
O 6.48271499 0.80216005 7.82144374
O 6.46250614 5.34976777 7.85459219
O 1.34257583 1.76262216 7.79882129
O 9.10777039 1.74495196 3.30696647
O 12.98772469 4.50686111 1.07742344
O 14.26420679 5.41119697 3.33601336
O 12.92905679 4.55140568 5.56882181
O 10.39378255 0.87913168 5.57941128
O 10.33090941 5.41293615 5.59465293
O 12.98383958 1.76417305 1.08171393
O 12.97393210 1.81821815 5.54903045
O 9.03612552 4.47917099 7.84463509
O 9.07551965 4.48972369 3.31481525
O 10.38602039 5.40324562 1.08321047
O 10.40869120 0.83405966 1.08125243
O 14.25922652 0.86089776 3.33799723
O 14.27533307 0.90309012 7.79197772
O 14.23858929 5.43673470 7.80779183
O 9.08537166 1.72287717 7.84453913
O 1.31736665 1.76368458 12.31512015
O 5.13693637 4.46400151 10.08961917
O 6.47224719 5.37420464 12.31517268
O 5.19677262 4.49833227 14.57266401
O 2.64325690 0.86994846 14.54470070
O 2.60738194 5.40344766 14.54757345
O 5.15606625 1.72475513 10.03010070
O 5.24295750 1.76259047 14.53805606
O 1.31692914 4.52951964 16.79743640
O 1.30103880 4.50321099 12.30171636
O 2.57201889 5.42679222 10.04742488
O 2.57002907 0.82243495 10.06362883
O 6.49626928 0.85185859 12.26420962
O 6.50693373 0.85495302 16.79583175
O 6.47591736 5.42665694 16.80973152
O 1.34169295 1.79556195 16.77444863
O 9.05936328 9.08741036 12.36110225
O 12.99903152 11.83240160 10.07690811
O 14.27024658 12.73463340 12.33694388
O 12.96053240 11.83284691 14.57138758
O 10.39833209 8.14112969 14.56602841
O 10.36209816 12.72612093 14.57965277
O 12.98146190 9.07142690 10.04243352
O 12.98508488 9.07531793 14.55503272
O 9.09282757 11.79831299 16.82103930
O 9.08090590 11.79842924 12.33948823
O 10.42668747 12.70583046 10.11171094
O 10.33127546 8.11033825 10.05659347
O 14.27511460 8.15461387 12.30836430
O 14.27543388 8.19055860 16.80418901
O 14.26921670 12.73621311 16.81969918
O 9.08424635 9.05978386 16.78574183
O 1.32579848 9.06155408 12.30070124
O 5.23966627 11.78798659 10.08257663
O 6.50159641 12.71284842 12.32385346
O 5.20785404 11.80124445 14.56625758
O 2.61330649 8.14770559 14.55079179
O 2.61986103 12.72702882 14.56657374
O 5.25078533 9.05452022 10.03845707
O 5.18558022 9.06534252 14.55527708
O 1.32354323 11.81374529 16.80647232
O 1.31458368 11.80766522 12.32926756
O 2.62409843 12.67884497 10.08713192
O 2.62702856 8.16834998 10.06263823
O 6.47765804 8.11601275 12.33168257
O 6.48521899 8.17367760 16.79621902
O 6.50849599 12.71121202 16.80719112
O 1.34486097 9.07193497 16.81451221
H 8.17881127 1.43051903 12.27660648
H 9.53198045 1.43443383 11.53127768
H 13.36803310 4.85413258 9.25512371
H 12.02223635 4.84928702 10.01792818
H 13.76321137 5.08449356 11.51909571
H 13.78203567 5.07180559 13.06578021
H 12.05951236 4.80078890 14.55648048
H 12.96041536 3.54697434 14.56234508
H 9.92258997 1.16044911 13.77362290
H 10.36386677 14.49968237 14.54655545
H 9.91080657 5.07837331 15.32916412
H 9.91533788 5.08404613 13.78392401
H 12.96699845 2.74240398 10.02905748
H 13.43455604 1.49270816 9.25034476
H 13.40225911 1.44091305 13.75681030
H 12.07350817 1.42886844 14.54520260
H 9.04758823 3.53363207 16.79628215
H 8.15606349 4.79926352 16.80123339
H 8.16110166 4.79589650 12.31975571
H 9.06495638 3.54643328 12.32107323
H 9.90678877 5.13292862 10.84342504
H 10.33162662 6.39509454 10.05367297
H 10.44182046 14.48828064 10.10757048
H 11.31189793 1.16132112 10.07443083
H 13.83276713 1.19892498 11.50016375
H 15.16205135 1.19269753 12.29073596
H 15.19831312 1.21297361 16.76516005
H 13.85392065 1.19437129 15.99970351
H 13.81711375 5.14547488 15.99644680
H 14.25871085 6.41616839 16.76375475
H 9.56837638 1.42924067 17.57554941
H 9.56677015 1.43929137 16.03008930
H 9.51698921 8.74629267 4.08544405
H 9.51347881 8.74845317 2.53577014
H 13.44988467 12.14294018 0.33799113
H 13.46060920 12.13675650 1.88432580
H 13.83550680 12.42514685 4.14012561
H 14.26505313 13.68950552 3.36575513
H 12.09341906 12.16354259 5.59433900
H 13.42326274 12.17558650 6.38519569
H 10.31815814 7.24897014 5.55426758
H 11.20647353 8.49636089 5.54597359
H 9.92625843 12.39091951 4.77115923
H 9.93057599 12.39591413 6.31082416
H 12.04551481 8.77075165 1.09044713
H 12.94212072 10.03254463 1.10695843
H 13.41679278 8.76744481 6.35668856
H 12.99334104 10.03590271 5.59298975
H 8.16272968 12.08534227 7.82147268
H 9.09767539 10.86099801 7.85489215
H 8.16765578 12.09764086 3.34120286
H 9.05029210 10.82816965 3.33156114
H 9.95688494 12.36947292 1.90557285
H 11.30330294 12.36564189 1.13963452
H 9.91636336 8.44690396 0.28575474
H 10.36980056 7.19481445 1.06757424
H 13.78949346 8.48701009 4.11002438
H 13.78567154 8.48013434 2.56410746
H 15.16848441 8.49878550 7.83324226
H 13.82835866 8.49351862 8.60449553
H 15.19038818 12.45500221 7.82890491
H 14.30306502 13.72221132 7.82216727
H 0.39057032 8.76464466 3.34706925
H 1.29360425 10.02019482 3.34312737
H 5.66658957 12.11251598 0.31086042
H 5.20110050 10.85261587 1.07773429
H 6.02006004 12.37596749 4.12038030
H 6.01990313 12.38395441 2.57335255
H 4.28738119 12.07296094 5.59871149
H 5.18222962 10.81212906 5.58886717
H 2.15916286 8.48121099 6.34626408
H 2.14578483 8.48535605 4.80172600
H 2.62731457 13.65233470 5.55557182
H 2.16744340 12.39236604 4.78969649
H 4.28180139 8.73950278 1.12083885
H 5.62786419 8.74279896 1.87890857
H 4.30867841 8.69807182 5.54996162
H 5.63959471 8.70278174 4.75200689
H 1.79660558 12.14087117 7.05419185
H 1.79783670 12.13436632 8.60284019
H 0.42770259 12.14090104 3.32391724
H 1.76570946 12.13676271 2.54885664
H 3.53186396 12.43496854 1.09973355
H 2.63624154 13.69484217 1.09415826
H 2.14796974 8.44235911 1.90411722
H 2.59757301 7.17583088 1.13938881
H 6.51944254 7.18684002 3.32225766
H 7.39890459 8.45978531 3.31411670
H 7.47382486 8.30784072 7.57900201
H 6.09216617 8.45127280 6.92149875
H 6.51933422 13.64004645 7.79339052
H 6.06185657 12.37356466 7.03227690
H 1.33584084 10.03640601 7.83413166
H 1.78783567 8.78023133 8.60845953
H 0.41791337 1.40334439 3.32437028
H 1.75170839 1.41819670 2.53960195
H 5.65530901 4.80578349 1.90372005
H 5.20975334 3.54989843 1.12167607
H 7.40999527 5.06988548 3.34738283
H 6.07865299 5.07989211 4.13797950
H 5.62430391 4.78720163 6.38631166
H 4.30108270 4.80895855 5.58548169
H 3.54803176 1.16165242 5.53908840
H 2.19835098 1.15538524 4.78351215
H 2.61120434 6.36567538 5.54006433
H 2.15947565 5.09814589 4.77728519
H 5.67952023 1.42778874 1.86136295
H 5.67574813 1.43960471 0.31691366
H 5.69254684 1.45370548 4.76621597
H 5.23022774 2.70810457 5.54463738
H 1.76860406 4.80295947 7.00764954
H 1.32909761 3.54623301 7.78789395
H 0.39251558 4.77816610 3.34733684
H 1.28391194 3.51273250 3.34779713
H 3.50763800 5.07786276 1.13676954
H 2.16402522 5.05850265 1.90184132
H 2.18603775 1.20869433 0.28393900
H 3.51724158 1.20200436 1.06942199
H 7.44296327 1.13720479 3.31056287
H 6.53517479 14.48683612 3.33074038
H 6.03786732 1.14386269 7.03830870
H 5.99494603 1.13603817 8.58285123
H 7.37930668 5.04490578 7.85923186
H 6.49353932 6.30678031 7.82283107
H 1.82088775 1.42189306 7.03564386
H 1.78399932 1.41921053 8.58273054
H 9.58829696 1.41302793 2.54052763
H 9.57795712 1.43749703 4.08857633
H 13.44861283 4.83376041 1.85741107
H 13.45608093 4.85311774 0.31077659
H 14.25806400 6.37441623 3.35018772
H 13.78501184 5.12594712 4.12186837
H 13.36782141 4.87744567 6.36195434
H 12.02063614 4.87218428 5.59844313
H 9.92985200 1.16122100 6.37463332
H 10.38687546 14.51911234 5.58447605
H 9.85976465 5.07652322 6.36233449
H 9.87486325 5.08079306 4.81605740
H 13.45434525 1.47016207 0.29408175
H 12.99348858 2.72729731 1.06190426
H 12.93665097 2.78148924 5.55534118
H 12.06301963 1.50699309 5.56828935
H 9.50343428 4.79869573 8.62679655
H 9.07358735 3.51826415 7.86972583
H 9.54296502 4.80138936 2.53231436
H 9.09989374 3.52795218 3.28399210
H 11.29352948 5.08286515 1.05826512
H 9.94938106 5.07234480 0.29160030
H 11.32336455 1.13719848 1.07847217
H 10.43113969 14.47335986 1.09046650
H 13.79234066 1.21281459 4.10427599
H 13.79707720 1.18732842 2.55863504
H 13.84131519 1.23497996 6.99910515
H 15.18363043 1.22264310 7.76892655
H 15.14875722 5.12505202 7.80110586
H 14.27513279 6.40006926 7.81072951
H 8.18164248 1.39412862 7.86879744
H 9.52576027 1.39877999 8.63728140
H 1.78663597 1.46987229 13.10315080
H 1.32651326 2.72679268 12.32710726
H 4.23887797 4.81125943 10.05743013
H 5.58601856 4.78756808 9.30234073
H 5.99051344 5.03810724 11.55260934
H 6.00992242 5.05861751 13.09907062
H 5.62920231 4.83829480 15.36371453
H 4.29081915 4.82471033 14.58749789
H 2.65312040 14.50899200 14.55673689
H 3.56250650 1.15640311 14.54077730
H 2.13582898 5.07362088 13.77562165
H 2.13271024 5.08767569 15.32406707
H 4.24095898 1.42409969 10.04496262
H 5.12900594 2.68753859 10.04826547
H 5.68794656 1.47558587 13.73422193
H 5.23963196 2.72588237 14.53043917
H 1.75268217 4.84775828 17.59523034
H 0.41474651 4.86717162 16.81663963
H 0.39300856 4.82504421 12.27897997
H 1.73106740 4.83788493 11.50800667
H 2.11738240 5.13181029 9.25090150
H 2.57315146 6.38944982 10.03219181
H 2.12359296 1.13020250 10.85994836
H 2.57086095 14.46242596 10.09716479
H 6.48214400 14.49115619 12.27071055
H 6.02031596 1.13348192 11.47614191
H 6.08055012 1.18100862 15.99609406
H 7.41203212 1.18375612 16.77999722
H 6.47083321 6.38954785 16.82610258
H 6.02016857 5.13245655 17.60522069
H 1.34367491 2.75889513 16.76054092
H 1.80615312 1.49958485 15.98449909
H 9.51213390 8.74046419 13.13616774
H 8.16558091 8.73372045 12.37711457
H 13.46228236 12.15748747 10.85609178
H 13.47151552 12.17102834 9.30863150
H 14.25071067 13.69788961 12.34521990
H 13.80222585 12.43964323 13.12560230
H 12.05222785 12.15169846 14.59781835
H 13.39549083 12.16163017 15.36467578
H 10.42950947 7.17857561 14.55969341
H 11.30989081 8.45081177 14.56090224
H 9.89772850 12.38548024 13.80767420
H 9.89652565 12.39350574 15.35466578
H 12.99763988 10.03195387 10.07197496
H 13.42452816 8.76534051 10.83906234
H 13.44328305 8.79156211 15.35321767
H 12.98239936 10.03766879 14.56960029
H 9.10226632 10.83506174 16.82777920
H 9.55832613 12.08710384 17.61323660
H 9.08549529 10.83311411 12.32691770
H 9.55809814 12.08987484 11.55714502
H 9.99548284 12.39313297 9.31581268
H 11.33513440 12.37988114 10.08395471
H 11.22201721 8.46046499 10.03914011
H 9.91771753 8.46624024 10.84288656
H 14.24891331 7.19233483 12.31742807
H 13.81665277 8.45212646 13.10082566
H 15.18302904 8.51030426 16.83356887
H 13.83526178 8.51051915 17.59903966
H 15.18061780 12.42530073 16.80757306
H 14.30516262 13.69860654 16.80973186
H 8.17700693 8.73862460 16.76120195
H 9.52565402 8.72621567 15.99696059
H 0.41186485 8.75471171 12.30052479
H 1.29342445 10.02382390 12.31436410
H 5.70506753 12.12060387 10.85879480
H 5.70079488 12.12780389 9.31052627
H 6.06257812 12.38822072 13.11778946
H 7.40791437 12.38636111 12.35394180
H 5.66942572 12.09559763 15.35868235
H 5.21157455 10.83792416 14.58117656
H 2.59733926 7.18499224 14.52775075
H 2.14915817 8.45126100 13.76339999
H 2.18688640 12.39832444 15.36180245
H 3.52148694 12.38919012 14.58446661
H 5.26422738 10.01838462 10.03728817
H 5.72192706 8.77226320 9.25450055
H 4.28154538 8.73204416 14.53388340
H 5.62294139 8.72205798 13.76887168
H 1.78042983 12.11400407 17.59925877
H 1.33831587 10.85086439 16.82681612
H 0.41313217 12.14767543 12.34744430
H 1.75077594 12.13880990 13.12138045
H 2.18312116 12.34951166 10.87811061
H 3.52944020 12.35587867 10.11330362
H 3.53478510 8.48308890 10.08211948
H 2.19405691 8.49716761 10.85857381
H 6.04935530 8.41910133 11.52656897
H 6.46774683 7.15315166 12.30495188
H 6.00973482 8.49614260 16.02317101
H 6.01939595 8.50849946 17.56959487
H 6.52632127 13.67414596 16.79836106
H 7.42557187 12.41663178 16.81319006
H 1.80962734 8.72775323 17.58449020
H 1.80300213 8.73762784 16.03670685
