381

O 9.10209390 1.76243686 12.31067969
O 12.99223823 4.56637497 10.03439144
O 12.89426364 4.47144513 14.43217730
O 10.34932316 0.78934654 14.54889379
O 10.39886468 5.44169303 14.56160979
O 12.97998055 1.75248398 10.08245278
O 12.91982042 1.69553918 14.61199198
O 9.07731993 4.49539237 16.76536088
O 9.10965295 4.50283289 12.29521075
O 10.33625856 5.44670454 10.06479245
O 10.35581688 0.87124243 10.04859983
O 14.24917471 0.82252715 12.35147486
O 14.27471447 0.82271863 16.82857536
O 14.29249996 5.38255212 16.71738438
O 9.09167284 1.75483437 16.79582385
O 9.08586254 9.04526058 3.32358612
O 12.94360729 11.77791827 1.07820604
O 14.24899346 12.68501306 3.32360923
O 12.97046991 11.79512354 5.57635672
O 10.37597450 8.15683238 5.57289606
O 10.39690758 12.73037114 5.55502212
O 12.98415037 9.04215904 1.08473922
O 12.96323006 9.06487432 5.57486775
O 9.09416891 11.84675588 7.79512132
O 9.10903816 11.79154810 3.32328774
O 10.37479623 12.72407193 1.06293698
O 10.39727880 8.12854997 1.09718726
O 14.26203319 8.13615878 3.34551104
O 14.27745613 8.19274430 7.81698322
O 14.28592784 12.72521477 7.79167828
O 9.08800072 9.10897401 7.81108454
O 1.31920623 9.06011629 3.35414329
O 5.22749343 11.81703781 1.06909508
O 6.51976040 12.71753973 3.32526003
O 5.20731043 11.82791932 5.56625969
O 2.63020777 8.19027186 5.59373201
O 2.61013888 12.71905563 5.55283426
O 5.21334792 9.07776923 1.10202612
O 5.21482832 9.08958978 5.58923147
O 1.34121381 11.80322718 7.81056393
O 1.30972894 11.80575036 3.31612666
O 2.63570810 12.73970559 1.09934228
O 2.61921856 8.16980011 1.11155647
O 6.48980898 8.15829112 3.34260372
O 6.50585102 8.17584440 7.82401947
O 6.48954362 12.69726336 7.82906968
O 1.34742268 9.06020336 7.85079346
O 1.32451110 1.78505902 3.33602763
O 5.18619590 4.50558624 1.09123882
O 6.52804218 5.42321821 3.29515988
O 5.19766468 4.50554327 5.52062134
O 2.62037086 0.86141750 5.57190079
O 2.61336419 5.45047082 5.56335325
O 5.22759990 1.76968560 1.11682901
O 5.20406951 1.76459436 5.59488349
O 1.31304620 4.51719707 7.81591571
O 1.29797725 4.52904273 3.35166871
O 2.59736624 5.41949446 1.11247668
O 2.63281249 0.87694268 1.10851727
O 6.51095251 0.86128303 3.36826661
O 6.45870255 0.83504836 7.84070905
O 6.45227651 5.42955305 7.78219105
O 1.34792217 1.78413196 7.83546253
O 9.09397195 1.78087455 3.34477959
O 12.98289585 4.50950439 1.05889389
O 14.22646167 5.39793760 3.35745690
O 12.95742020 4.48951547 5.61060787
O 10.38027672 0.86781108 5.58515746
O 10.38000958 5.41418851 5.59197754
O 12.98200361 1.75749446 1.11458589
O 12.98559308 1.73880831 5.60821587
O 9.04531375 4.51221899 7.82402635
O 9.12704891 4.52123460 3.31603392
O 10.39181678 5.40012329 1.05217033
O 10.38688857 0.86448067 1.10243535
O 14.28259773 0.83342706 3.35050464
O 14.29553028 0.86062065 7.85071000
O 14.26782310 5.42380621 7.82321769
O 9.04096010 1.76558847 7.81197823
O 1.28434659 1.72316174 12.33727655
O 5.18766030 4.49976855 10.04233048
O 6.50152097 5.36834033 12.27983781
O 5.23699120 4.48618438 14.54442593
O 2.62170022 0.81873325 14.58125379
O 2.65969274 5.43305282 14.62658435
O 5.20535277 1.76499188 10.08718024
O 5.19452528 1.74984511 14.56126002
O 1.33203832 4.49666972 16.79883064
O 1.35899322 4.54759613 12.30241068
O 2.60957239 5.41144757 10.08982813
O 2.61558437 0.85367066 10.07689856
O 6.51039370 0.86881963 12.32545729
O 6.48801637 0.85824861 16.80992313
O 6.49539918 5.39306369 16.79063828
O 1.31602634 1.75058024 16.81340003
O 9.04246887 9.05099890 12.32709420
O 12.96833077 11.83274835 10.02507191
O 14.24501929 12.70349109 12.30089307
O 13.00048713 11.75639633 14.55877951
O 10.37081430 8.16761958 14.58389501
O 10.39225304 12.65774268 14.55673640
O 12.91995377 9.09258677 10.03858279
O 12.99200769 9.02659344 14.53999082
O 9.06050716 11.80085511 16.78537289
O 9.10750175 11.79524949 12.29470966
O 10.37893395 12.73361369 10.05121962
O 10.34570273 8.20103371 10.06231855
O 14.23946695 8.16219554 12.31425438
O 14.28721134 8.13972613 16.76912675
O 14.27973013 12.68248394 16.79832893
O 9.08644849 9.06238256 16.82814756
O 1.33632706 9.10563756 12.33064306
O 5.19217790 11.80522040 10.07412871
O 6.52263415 12.73061535 12.27629949
O 5.21560587 11.79046514 14.50224513
O 2.63353178 8.18251342 14.56985890
O 2.62480374 12.67947224 14.56177535
O 5.20381155 9.06211433 10.07311540
O 5.23711705 9.04328724 14.55224562
O 1.33892538 11.80560331 16.81831655
O 1.30843032 11.82552437 12.30216304
O 2.60551239 12.72498113 10.06874098
O 2.62731804 8.13167019 10.08695616
O 6.47896882 8.10510867 12.30419318
O 6.51192328 8.14011644 16.80413999
O 6.47570766 12.72393248 16.75253198
O 1.32104402 9.06306695 16.81852105
H 9.54330019 1.46403938 11.50705077
H 9.12555522 2.72511433 12.29359726
H 12.98924569 3.60990212 10.07787175
H 12.07444991 4.83899466 10.04335698
H 11.99577293 4.83646027 14.46056168
H 13.21410367 4.60608375 13.55282313
H 9.90765711 1.10102561 13.75121897
H 10.34257138 14.42850284 14.52150453
H 10.37307869 6.40514425 14.59887663
H 9.93167100 5.11971612 15.34169706
H 12.07206205 1.43645581 10.08607515
H 13.39374821 1.42327195 10.88516141
H 12.01076234 1.37292748 14.59170508
H 12.86679034 2.65208370 14.59495607
H 9.06246445 3.53218618 16.76842053
H 8.15851672 4.78742042 16.77352321
H 9.56345117 4.85100506 13.06679952
H 9.56342809 4.85314362 11.51839389
H 10.32782487 6.40775107 10.03288124
H 9.87985047 5.13814101 9.27541928
H 10.34735382 14.51088100 10.02807302
H 9.89350687 1.16878639 9.25779403
H 13.81652496 1.14041920 13.14801835
H 15.15557654 1.15389520 12.36675841
H 13.82526850 1.13980813 16.03896031
H 15.17571906 1.16332560 16.79868379
H 15.19982326 5.05197471 16.72390304
H 13.88237375 5.05872017 15.91614364
H 9.56628475 1.43704246 17.57134510
H 9.54341381 1.39855192 16.02408867
H 8.17564299 8.73123383 3.30268672
H 9.52133733 8.70386224 2.53561127
H 12.04344821 12.11978718 1.04656246
H 13.39551343 12.11111576 0.29590231
H 13.78356401 12.36138200 4.10265377
H 13.77116760 12.35654321 2.55538551
H 13.43754488 12.10608936 6.35943683
H 12.98222569 10.83224529 5.60498242
H 10.36534647 7.19353471 5.56578996
H 9.91593032 8.44487308 4.77741602
H 11.29744041 12.38830427 5.54477369
H 9.96306863 12.39277429 4.76425249
H 13.44201668 8.75013657 0.29079873
H 12.97780393 10.00562461 1.06450882
H 12.05905694 8.73309798 5.55412976
H 13.39940609 8.73165310 4.78341516
H 9.56688854 12.18111261 7.02522250
H 9.55945371 12.17064290 8.57361971
H 9.55551881 12.09282609 2.52543162
H 9.11567360 10.82879003 3.30181875
H 9.90052953 12.43595475 0.27605343
H 10.36397575 13.68717244 1.06276060
H 11.31144101 8.43159997 1.09678470
H 10.42263885 7.16549788 1.08178806
H 14.23528065 7.17339225 3.33056525
H 13.81675798 8.43742557 2.54700166
H 13.78794289 8.51835734 8.57766685
H 13.80930193 8.50573048 7.03592329
H 15.20065792 12.42453945 7.79923964
H 14.30992126 13.68855166 7.80864774
H 9.54565274 8.79274819 7.02496644
H 9.10790909 10.07159927 7.77750537
H 0.42021094 8.71586114 3.37026367
H 1.75538097 8.74564871 4.15369919
H 4.32345095 12.14828352 1.06597643
H 5.64524345 12.14762241 0.26645883
H 7.42229400 12.38232282 3.31234238
H 6.09190936 12.39209089 2.52655812
H 4.30146603 12.15447006 5.54191364
H 5.64520122 12.15324718 4.77291888
H 3.53308049 8.52589369 5.60948875
H 2.20233041 8.50529573 6.39729904
H 2.13436488 12.38390965 4.78557327
H 2.15183316 12.38574537 6.33165200
H 5.66520015 8.76289537 0.31246503
H 5.23260186 10.04029323 1.06647961
H 5.22822764 10.05260494 5.60126931
H 5.67480622 8.79425912 6.38258842
H 1.78835890 12.11183299 8.60569444
H 1.35076096 10.84075490 7.84620121
H 1.29275669 10.84289314 3.32346291
H 0.39105336 12.09580974 3.31551972
H 2.62268901 13.70244052 1.13014982
H 2.17034660 12.42968746 1.88357626
H 3.52431308 8.49766849 1.12910343
H 2.18631107 8.49522076 1.90822084
H 6.02949243 8.48996303 4.12091730
H 6.01895506 8.49488934 2.57271692
H 7.40897270 8.50893444 7.84352184
H 6.07081056 8.49559520 8.62137880
H 6.05585355 12.38111440 7.02956052
H 7.40040678 12.38622862 7.79599186
H 0.43920193 8.74013627 7.85950924
H 1.77370043 8.71415512 8.64236392
H 1.28843715 2.74745686 3.35007707
H 0.41396475 1.47119739 3.33888471
H 4.28075061 4.83213431 1.12571912
H 5.63742062 4.84822585 1.87033436
H 7.44609004 5.13358369 3.29977859
H 6.53775372 6.38617289 3.31653658
H 5.66912396 4.78894931 4.73105826
H 5.21207066 3.54249014 5.52770538
H 2.16240092 1.16833453 4.78243866
H 2.60250474 14.50105921 5.54609393
H 3.52317600 5.13627620 5.54866743
H 2.65134791 6.41268530 5.57512443
H 5.68018809 1.47606541 1.91467982
H 5.22735614 2.73304780 1.13147472
H 5.62520667 1.43567279 6.39666817
H 4.29783425 1.43784685 5.60465598
H 0.40582787 4.84322223 7.79935886
H 1.74844383 4.86153828 7.03079402
H 0.39006359 4.84738803 3.38033467
H 1.73903572 4.86612887 4.13966105
H 2.59358883 6.38201055 1.13191320
H 2.13430039 5.12557628 1.90477490
H 2.19474627 1.21512850 1.89719743
H 3.54025714 1.19864564 1.13331214
H 6.04673150 1.14639171 4.16313894
H 6.50209676 14.50047194 3.36960103
H 6.45221074 14.47450083 7.86283793
H 6.01709600 1.13838585 8.64162886
H 6.45840079 6.39196167 7.77008900
H 6.00809058 5.13862232 6.97905711
H 1.34911675 2.74778488 7.80707813
H 1.78986511 1.48173415 7.03592913
H 9.53091759 1.44986403 4.13714231
H 8.18866423 1.45279152 3.37196150
H 13.41974136 4.83051177 0.26542339
H 12.07508556 4.83013013 1.02694079
H 13.77211603 5.06703949 2.57699175
H 13.75633032 5.06184529 4.12875679
H 12.98396703 3.52760356 5.63561446
H 13.42385636 4.80181091 6.39531576
H 10.40952909 14.50733806 5.57120485
H 11.29582494 1.16692715 5.59701690
H 11.28350037 5.08117936 5.62905545
H 9.93050940 5.08727379 6.37833614
H 12.99849571 2.71908682 1.07799262
H 13.43929657 1.44518520 0.32638713
H 13.45731988 1.41048403 4.83636592
H 13.46024113 1.41893068 6.38319820
H 8.13037730 4.81128681 7.80669502
H 9.02127158 3.54963765 7.82486338
H 9.57103480 4.81789430 4.11793496
H 9.12118822 3.55836236 3.34712229
H 9.90662304 5.07032103 0.28847821
H 9.93705553 5.07468715 1.83721838
H 9.94903642 1.19174634 1.89564358
H 11.29292866 1.18956108 1.12925181
H 13.81824514 1.14085728 2.56518937
H 14.26317664 14.47332746 3.32220593
H 13.85358479 1.18413105 8.64405090
H 15.19482043 1.20468198 7.86950823
H 13.81196586 5.13022205 8.62656232
H 14.26217263 6.38444272 7.83987282
H 8.14083823 1.42377698 7.79528629
H 9.48174877 1.44200872 7.01965376
H 1.77111251 1.39808799 13.09980057
H 1.75950719 1.42002428 11.55768167
H 5.60148104 4.83757014 9.24167722
H 4.27899754 4.82394009 10.04677263
H 7.40962977 5.05024149 12.25467820
H 6.06440631 5.04499806 11.48411284
H 5.22261266 3.52325639 14.52657410
H 5.68383827 4.77232902 13.74074319
H 2.60752625 14.45846400 14.59908454
H 2.15893415 1.12117812 15.36912876
H 2.67850297 6.39417394 14.60055709
H 3.57270424 5.13165241 14.59085406
H 5.21162870 2.72847831 10.08989089
H 5.66567217 1.47978954 10.88315348
H 5.62416170 1.42961758 15.36094947
H 4.29097731 1.41487093 14.57764716
H 1.77871703 4.83065520 17.58414587
H 1.82379903 4.83422944 16.03945917
H 1.30496602 3.59294733 12.33645222
H 1.79632355 4.82247252 13.10812680
H 2.14426187 5.08119474 10.87382157
H 2.13022047 5.08917555 9.32115376
H 3.51758522 1.19021913 10.07024619
H 2.18915144 1.19539887 9.28347693
H 6.07273359 1.18425924 13.12328637
H 7.41243171 1.20558435 12.34413769
H 7.39434295 1.18157575 16.82460238
H 6.06305815 1.18664983 17.60996828
H 6.01349907 5.07107169 17.55974884
H 6.03517102 5.06109435 16.01128654
H 1.78069477 1.46067579 17.60609104
H 1.33680688 2.71344557 16.82114881
H 8.14279101 8.70571534 12.34366340
H 9.48237213 8.72651572 13.11821980
H 12.96379419 10.87072681 10.00254692
H 13.43551680 12.12766605 9.23587872
H 13.79411069 12.41852272 11.49929986
H 14.23225317 13.66788533 12.29881833
H 13.47308299 12.09664271 15.32653730
H 13.44991061 12.10015005 13.77875911
H 11.27542327 8.49426704 14.59529916
H 9.94161289 8.50220087 15.37972634
H 11.29749158 12.33308724 14.58846895
H 9.94571330 12.33686719 15.34810209
H 13.35284939 8.75668446 10.82438986
H 12.01232795 8.76624732 10.06086124
H 13.00939817 9.99148611 14.55265143
H 13.45582307 8.73417198 15.33396257
H 9.03741170 10.83831468 16.81134922
H 8.14604755 12.10305991 16.76968322
H 9.56082593 12.07567712 13.09667068
H 9.08321789 10.83296169 12.31801405
H 11.28667674 12.41190213 10.05992396
H 9.95364367 12.38932429 10.84352657
H 9.88505015 8.53916586 9.28638721
H 9.86483889 8.51252483 10.83572560
H 13.78575669 8.42361982 13.13004997
H 14.29150350 7.21873362 12.30943607
H 14.31206926 7.17812708 16.75578134
H 15.20304617 8.44171643 16.78663462
H 14.30094072 13.64541174 16.80953679
H 15.19757913 12.38914437 16.81237926
H 8.18621805 8.71844412 16.84123397
H 9.52571266 8.72935130 17.61837480
H 1.31794691 10.07027214 12.31085748
H 0.42317289 8.81703576 12.31633137
H 5.67327486 12.14315796 10.83725374
H 5.66003007 12.11955894 9.29322969
H 7.43866070 12.43454253 12.28387027
H 6.53909270 13.69377389 12.29531511
H 5.67654960 12.09275089 13.71274064
H 5.24408062 10.82782150 14.49442093
H 2.16047201 8.51388171 13.80023257
H 2.16571491 8.50723753 15.34604077
H 3.52918261 12.35118336 14.51610569
H 2.17671930 12.37270847 13.76674494
H 5.17329098 10.02478623 10.07834397
H 4.29123337 8.75324221 10.07156600
H 4.32376362 8.73760224 14.54359475
H 5.65230038 8.69338657 13.75619484
H 1.81114309 12.11484594 16.03780024
H 1.80987273 12.14993065 17.58510949
H 0.40248797 12.15261886 12.28169122
H 1.74348836 12.16050897 11.50987133
H 3.52082898 12.42597327 10.07316643
H 2.62993283 13.68895537 10.06422163
H 2.17831876 8.43760530 10.87968959
H 2.61290742 7.16621483 10.10986314
H 6.47457465 7.14221685 12.26729065
H 6.02853555 8.41892346 11.51238832
H 6.06180003 8.44143848 16.00718861
H 6.49006867 7.17737819 16.78385364
H 6.02744465 12.43000072 15.95254034
H 6.46923830 13.68718222 16.74518248
H 1.78281491 8.76256691 17.60933498
H 1.33523271 10.02595316 16.84281271
