381

O 9.07166478 1.68767284 12.31617249
O 12.96924912 4.54083118 10.06853252
O 14.26770345 5.41163590 12.30657341
O 12.97547006 4.52709224 14.55714966
O 10.40781960 0.81759032 14.60339578
O 10.38370302 5.40751617 14.56409856
O 12.87028975 1.86803144 10.05601358
O 12.98877715 1.78448787 14.54930364
O 9.07777737 4.48502767 16.79121265
O 9.12287328 4.50599356 12.31009931
O 10.41648131 5.45004693 10.05971893
O 14.22953252 0.88196704 12.31172032
O 14.29302042 0.87152161 16.76888479
O 14.26012811 5.41002203 16.80803785
O 9.07770984 1.74941470 16.78651991
O 9.08989939 9.06528969 3.32472422
O 12.99789709 11.80636904 1.08935186
O 14.27504415 12.71700827 3.35290579
O 12.94937283 11.81329262 5.59021729
O 10.36648838 8.15165740 5.59070405
O 10.36630286 12.72010328 5.57539803
O 12.97492937 9.06083758 1.08164256
O 12.96573706 9.06851062 5.58236702
O 9.08666772 11.79282926 7.83921740
O 9.09893271 11.80507506 3.31502451
O 10.40557947 12.72750292 1.08790096
O 10.37165935 8.16732725 1.07356106
O 14.28153768 8.17635635 3.33319198
O 14.26993975 8.15748098 7.82481166
O 14.22772404 12.70897060 7.83370479
O 9.06640794 9.06860779 7.82352126
O 1.33633861 9.07511865 3.34736926
O 5.21531950 11.75929523 1.10519491
O 6.49910616 12.70067022 3.33298310
O 5.19940666 11.81615293 5.58346048
O 2.62250390 8.17459713 5.59383448
O 2.60961456 12.71037997 5.59762271
O 5.21074063 9.01950151 1.07949338
O 5.20312910 9.07348679 5.58486810
O 1.29719504 11.80450374 7.82817040
O 1.33419028 11.81997926 3.33910968
O 2.63881028 12.69939665 1.08979213
O 2.60555364 8.14021384 1.09600678
O 6.50409845 8.17281937 3.35139666
O 6.49850385 8.14104699 7.81810770
O 6.50145160 12.73596142 7.79355538
O 1.32634192 9.06599704 7.85240674
O 1.34724091 1.74794237 3.31042008
O 5.18538201 4.51992004 1.13291346
O 6.50766146 5.42570705 3.36307092
O 5.19485626 4.47777579 5.57665501
O 2.61469826 0.84585397 5.58166771
O 2.61917379 5.42559871 5.56857074
O 5.22895283 1.76914771 1.09847707
O 5.22149281 1.73643974 5.59636635
O 1.30689059 4.52694413 7.80508837
O 1.29205034 4.48860225 3.35362998
O 2.57556541 5.40295385 1.11074031
O 2.64907383 0.84626247 1.06742350
O 6.49470701 0.84306722 3.34507228
O 6.53194477 0.84554697 7.82927409
O 6.48791662 5.40587863 7.81945431
O 1.30999330 1.78680711 7.82484375
O 9.08513531 1.76017413 3.30075887
O 12.96294097 4.51451638 1.10415671
O 14.25576390 5.43422250 3.33480614
O 12.95205124 4.49593039 5.55635088
O 10.40014586 0.83612098 5.53238196
O 10.37010986 5.41959043 5.56277613
O 12.98318923 1.78173126 1.06333995
O 13.00202590 1.75694585 5.53427341
O 9.11547766 4.54493610 7.85479753
O 9.09527582 4.49910335 3.32469007
O 10.37505233 5.41931565 1.07748087
O 10.39323070 0.86010797 1.06615991
O 14.28740741 0.85390096 3.29520920
O 14.25108838 0.84812428 7.82963357
O 14.24122182 5.41728088 7.78885302
O 9.07703878 1.71353921 7.83751867
O 1.31660150 1.75261693 12.32216318
O 5.20612855 4.50830211 10.07291804
O 6.50345063 5.40337069 12.31350319
O 5.21199767 4.47859932 14.56029069
O 2.64760790 0.85122489 14.53668752
O 2.63084090 5.42226433 14.54905546
O 5.22562609 1.75886396 10.06973298
O 5.23680575 1.72716580 14.52184936
O 1.30881843 4.48978439 16.78410615
O 1.31209810 4.49305294 12.32348792
O 2.60104347 5.40926244 10.07490120
O 2.61470662 0.87220874 10.05848819
O 6.53716207 0.80626743 12.29596045
O 6.49360934 0.81576882 16.79579462
O 6.48281658 5.38007969 16.82208037
O 1.35037340 1.74908483 16.77461454
O 9.05933761 9.04102449 12.33305220
O 12.89950630 11.86162148 10.09965551
O 14.28187307 12.74651416 12.29085883
O 13.00582142 11.79933619 14.52985815
O 10.39883677 8.14351289 14.54894932
O 10.40663640 12.67032596 14.55677363
O 12.93208126 9.08444808 10.04076500
O 12.99328654 9.05208254 14.51684924
O 9.09669119 11.80750334 16.80512191
O 9.03541809 11.76075232 12.34323321
O 10.24351450 12.78393302 10.19135421
O 10.35828437 8.19819632 10.07132377
O 14.27168050 8.15443903 12.25256915
O 14.26146126 8.14326777 16.78353369
O 14.27494495 12.72506896 16.78241822
O 9.07919571 9.06928226 16.77243814
O 1.31742638 9.08243149 12.29866238
O 5.21488483 11.81175698 10.03396474
O 6.47761914 12.69179581 12.30716190
O 5.19593401 11.81156752 14.55265377
O 2.60368440 8.17748784 14.55809100
O 2.60236047 12.72116641 14.54794572
O 5.22642402 9.06479151 10.07283067
O 5.18938910 9.07280603 14.56211464
O 1.32402487 11.80960673 16.79653023
O 1.32770055 11.82396533 12.28386666
O 2.63373119 12.73320931 10.04004329
O 2.63605792 8.14465254 10.08597326
O 6.48058369 8.14988010 12.33920600
O 6.50419590 8.12369683 16.77652660
O 6.49125983 12.67285908 16.80940201
O 1.31231627 9.06895505 16.80913636
H 9.53993566 1.41387688 13.10544096
H 9.11227912 2.64399588 12.29909409
H 12.06848521 4.89012445 10.08592537
H 13.41182089 4.85823497 10.86447377
H 15.17160090 5.07831041 12.33252770
H 13.83203379 5.09507582 13.10561950
H 12.06610677 4.84561764 14.57897176
H 13.40469658 4.85243993 15.35572137
H 10.44119744 14.45883152 14.58537158
H 11.31649536 1.13164763 14.58761531
H 9.90587220 5.06909268 15.32901322
H 9.92502402 5.07972042 13.78149845
H 11.94706506 1.66366474 10.05392302
H 12.91569642 2.83793930 10.05789849
H 12.98603799 2.74752175 14.57420751
H 13.45620912 1.48672817 15.33776356
H 9.05940741 3.52148657 16.78951469
H 8.16029290 4.77735747 16.80377521
H 9.55281500 4.84056839 11.51788701
H 8.21548090 4.82317040 12.28578994
H 10.38387606 6.41165811 10.04362912
H 9.94989950 5.14475945 9.27107042
H 13.77434943 1.21197254 13.09722821
H 13.75058464 1.22193393 11.55497307
H 14.30052036 14.51056140 16.77590260
H 15.21409021 1.15444616 16.77325956
H 13.82791671 5.08872783 17.60674320
H 15.16201261 5.07199788 16.81811828
H 9.52158067 1.41148822 15.99989453
H 8.17815392 1.40662721 16.77005038
H 9.54585123 8.76671108 2.53051848
H 9.10902824 10.02834163 3.30615258
H 13.00058588 10.84323512 1.10403933
H 13.45053569 12.09740885 1.88762017
H 13.80409899 12.42974233 4.14160592
H 14.26101062 13.67997745 3.35106260
H 12.03178969 12.10787490 5.58221472
H 12.93256602 10.85032576 5.57946433
H 9.92152982 8.45533582 4.79276255
H 10.35632740 7.18796666 5.56131932
H 9.91113707 12.43156599 6.37133913
H 10.36258065 13.68515709 5.58109324
H 13.44476523 8.73276626 1.85536291
H 13.44203780 8.72651068 0.30863360
H 13.40268281 8.74081276 6.37528685
H 12.06476638 8.72918126 5.60134333
H 9.50569335 12.08193893 8.65054290
H 9.08859128 10.82825812 7.84846251
H 9.57496699 12.14597072 2.55015979
H 9.55490751 12.13622226 4.09575155
H 11.32026298 12.42700240 1.08828989
H 10.42742173 13.69090384 1.07807063
H 9.93762251 8.49993873 0.28065752
H 11.27880076 8.48922095 1.05189282
H 13.83963316 8.50160126 4.12416077
H 15.18433333 8.51154996 3.36020294
H 13.79543881 8.45707910 8.60688080
H 14.24652974 7.19458770 7.83313499
H 13.74666987 12.38993810 8.60279389
H 13.75812551 12.38387018 7.05650539
H 9.51007551 8.73327678 7.03637960
H 8.16487781 8.72761230 7.79837475
H 1.79168323 8.78286516 4.14450061
H 1.35029756 10.03821538 3.35863673
H 5.66482621 12.05943358 0.30748452
H 5.22249698 10.79637437 1.07809383
H 7.40555220 12.37679915 3.30894863
H 6.06284284 12.35794657 2.54546568
H 5.67604214 12.15665608 6.34919747
H 5.66382050 12.13985371 4.80425428
H 3.52660324 8.50790512 5.61050859
H 2.19190359 8.49312231 6.39367858
H 2.17205048 12.36872790 6.38425354
H 3.51667942 12.38574596 5.61508816
H 4.30471574 8.69396084 1.06400610
H 5.64217816 8.68932079 0.28427817
H 5.66272999 8.77784952 4.79117933
H 5.21976559 10.03657279 5.57002585
H 1.28236794 10.84119142 7.84213497
H 0.38011331 12.09588008 7.82985308
H 0.42756099 12.14453331 3.35936236
H 1.76273441 12.14872030 4.13650377
H 2.19775364 12.38828507 1.88747407
H 3.53702262 12.35237543 1.11483061
H 2.57819557 7.17761451 1.12265817
H 2.16221178 8.45209898 1.89200863
H 6.07000313 8.47614111 2.54717237
H 7.40801532 8.50550839 3.32204390
H 6.47770039 7.17723190 7.80172760
H 6.03559221 8.44298196 7.02942552
H 7.41123768 12.42436998 7.80526371
H 6.53677168 13.70121203 7.80687268
H 0.42537392 8.72627468 7.86625890
H 1.76350623 8.73191459 8.64277618
H 1.82732651 1.42545312 2.54018523
H 1.80666059 1.41226943 4.08727069
H 5.62351007 4.85706808 1.92145267
H 4.27721945 4.83772904 1.15517358
H 7.42156397 5.12229704 3.34457659
H 6.53380421 6.38827277 3.36796214
H 5.66506208 4.78224638 4.79344491
H 5.21311008 3.51483165 5.55838063
H 2.59915358 14.48522731 5.61404802
H 2.15378395 1.15716107 6.36671239
H 3.53142530 5.11569987 5.57219656
H 2.64984072 6.38807263 5.57456797
H 5.67610458 1.47116839 1.89812959
H 5.22613262 2.73162749 1.12460518
H 5.66415124 1.41795162 6.39188101
H 4.31824234 1.40601436 5.62272393
H 1.75460859 4.85626749 7.01814642
H 0.40376889 4.85823729 7.77106034
H 1.76590003 4.79392435 4.13458798
H 1.31995800 3.52592652 3.36719520
H 2.11983271 5.07260236 0.32984863
H 2.10169185 5.06470298 1.87793355
H 3.56373391 1.14910049 1.07823732
H 2.67309387 14.48567992 1.07230536
H 6.48211675 14.48238695 3.35567059
H 6.04723364 1.13424234 4.14723812
H 6.10203056 1.17403061 8.62483254
H 7.44393786 1.17313159 7.84724698
H 6.02482257 5.07664438 8.59698318
H 6.02546843 5.05622460 7.05089494
H 1.28774218 2.74997563 7.80605346
H 0.39634752 1.48705028 7.82499001
H 8.18286421 1.42417935 3.29617323
H 9.51531702 1.42610451 2.50674977
H 12.05697522 4.84218805 1.11256063
H 13.39118639 4.85057685 1.89892020
H 15.16666160 5.12102955 3.34266288
H 14.29113718 6.39673649 3.33579622
H 12.98026918 3.53365409 5.52503395
H 13.41550642 4.81237746 4.77330098
H 9.95551540 1.17414228 4.74865351
H 11.30101463 1.17054115 5.50941525
H 9.93554499 5.07728075 4.77387856
H 11.27209289 5.08325993 5.54448042
H 13.44460919 1.49152738 0.26983883
H 12.98769045 2.74514936 1.05614064
H 13.45827343 1.42502582 6.31219393
H 13.47767268 1.42623669 4.76462895
H 8.20201744 4.84440119 7.82703297
H 9.53113831 4.85598296 7.04499260
H 9.09750910 3.53591670 3.29815965
H 9.54342549 4.79986803 2.52717048
H 9.91884935 5.11245659 0.28636746
H 10.35932081 6.38171804 1.05322900
H 11.29261042 1.20290367 1.04541287
H 9.95125005 1.18358418 0.27290862
H 13.84766387 1.18879047 2.50627867
H 15.19469717 1.17620230 3.26966911
H 13.76577847 1.15831972 8.59514269
H 14.23758575 14.48675737 7.85891125
H 13.77965285 5.09250501 8.56767541
H 13.76767656 5.08229589 7.01907453
H 9.54234291 1.44181736 7.04573300
H 9.11809041 2.66945292 7.85675408
H 1.76232383 1.41468501 13.10715487
H 0.40951796 1.43569765 12.35112435
H 5.64433681 4.83435434 10.86674258
H 4.30204579 4.83592648 10.09867880
H 6.48357680 6.36502250 12.34646742
H 6.05710715 5.09160629 13.10754142
H 5.23000515 3.51571118 14.55828997
H 5.66451182 4.76250279 15.36143904
H 3.56661986 1.14279470 14.52254636
H 2.66167089 14.49010455 14.54153308
H 3.54612991 5.12238490 14.55336232
H 2.64850528 6.38464428 14.54929186
H 5.20169530 2.72111430 10.07257402
H 4.31042738 1.46313976 10.06838340
H 5.71745897 1.40207283 13.75144155
H 5.69453278 1.39297572 15.29977572
H 1.33630483 3.52741945 16.75409981
H 1.77463484 4.80408637 16.00236337
H 1.33053522 3.53052085 12.35113893
H 1.78105930 4.80321170 13.10567378
H 2.13353718 5.09073930 9.29626608
H 2.13133768 5.07156791 10.84435993
H 2.14651592 1.21409261 9.28963183
H 2.14439808 1.19100858 10.83519750
H 6.10274282 1.15261843 11.51060908
H 7.45012414 1.13232719 12.27911485
H 6.04655288 1.13432905 17.58673357
H 6.47488033 14.45598997 16.83088290
H 6.02229419 5.10461415 17.62186510
H 6.48298554 6.34294056 16.82029488
H 1.82652603 1.42354611 16.00287266
H 1.82428006 1.42562331 17.54863139
H 8.15749926 8.70173898 12.36400938
H 9.51395365 8.70762465 13.11451144
H 12.01157963 12.21684263 10.15323640
H 13.37201041 12.17556312 10.87937924
H 15.19786995 12.44710935 12.27505714
H 14.29845907 13.70905738 12.29682944
H 13.46187705 12.13249084 15.31047489
H 13.47319618 12.14949671 13.76457156
H 11.31508120 8.43868734 14.53509457
H 10.41486572 7.17992841 14.56133009
H 9.94878099 12.34169794 13.77764555
H 11.30955864 12.33803952 14.51799028
H 12.90774185 10.04487124 10.05782300
H 12.01400248 8.78938495 10.05300164
H 13.44757979 8.76037204 13.71989645
H 13.01134902 10.01469044 14.50796862
H 9.57323601 12.13384385 16.03469040
H 9.56416284 12.13900072 17.57965739
H 8.11813624 12.06116616 12.34934023
H 9.01692610 10.79598117 12.34318521
H 10.04639778 13.70887784 10.20619142
H 9.80352694 12.41015701 10.97193818
H 9.87831001 8.51504972 9.29833014
H 9.87874784 8.50177218 10.84948980
H 13.79677574 8.44754758 11.46831575
H 14.25916708 7.19152315 12.24872363
H 13.81544976 8.43986112 15.98370647
H 14.24975948 7.18009788 16.76899246
H 13.84016463 12.39681823 17.57688660
H 15.17905337 12.39326965 16.80996456
H 9.09340165 10.03249153 16.76130004
H 9.55040401 8.77222819 15.98689282
H 0.41500923 8.74868268 12.25877586
H 1.77161542 8.73889515 11.52154666
H 4.31046850 12.14241475 10.01290782
H 5.65014005 12.14918158 9.24349858
H 6.49348341 13.65736826 12.28357929
H 6.03356995 12.40332568 11.50257652
H 5.62261013 12.13703828 13.75212614
H 4.29232598 12.14361609 14.53881420
H 2.13269912 8.50606680 13.78540991
H 2.13208036 8.49977648 15.33359580
H 2.13405534 12.39045804 15.32201479
H 2.13648997 12.39181416 13.77258490
H 5.23372775 10.02719197 10.03877609
H 5.67553862 8.75675897 9.27848821
H 4.27191433 8.77863111 14.56601267
H 5.16957777 10.03602483 14.56365132
H 1.79043619 12.10842894 17.58480846
H 1.33196119 10.84662188 16.82186284
H 1.79508611 12.12186130 11.49627708
H 1.33497625 10.86068577 12.26388663
H 2.15798142 12.43581005 9.25757115
H 2.61789940 13.69643267 10.02669724
H 3.55116553 8.44418972 10.07913462
H 2.65557469 7.18151527 10.08412130
H 6.02605856 8.48074883 11.55734684
H 6.00332440 8.48892666 13.10468580
H 6.06332392 8.46557893 15.99167487
H 7.40512226 8.46377312 16.75853074
H 6.06050453 12.35796404 16.00750817
H 7.40088687 12.35810362 16.78442787
H 1.74813874 8.72999690 17.59867707
H 0.40897091 8.73562843 16.82535591
