381

O 9.11579971 1.76984254 12.31282084
O 12.96228185 4.52033462 10.08112453
O 14.26197718 5.42898641 12.32463745
O 12.97165748 4.48774238 14.56309696
O 10.37946494 0.85432239 14.55464084
O 10.38454038 5.39447650 14.56065998
O 12.94878971 1.77954194 10.06654647
O 12.97419915 1.74714127 14.54050688
O 9.08318913 4.49522697 16.79865102
O 9.09715863 4.51563168 12.30085513
O 10.38300318 5.43367600 10.06062345
O 10.36453853 0.86779912 10.05233157
O 14.26984507 0.85722902 12.28697302
O 14.26113803 0.82794536 16.76706974
O 14.25672578 5.40285292 16.81673754
O 9.07123489 1.74636018 16.79234215
O 9.09199431 9.04619936 3.35254195
O 12.97536454 11.81072132 1.10909411
O 14.26593896 12.74687228 3.34435836
O 12.98101029 11.81136999 5.57075507
O 10.42022619 8.16536573 5.58060308
O 10.38904139 12.71356938 5.56067433
O 12.95877144 9.07121520 1.08749695
O 13.01469861 9.06944179 5.57011214
O 9.08637712 11.84303929 7.80816338
O 9.06981052 11.78844996 3.33432949
O 10.39582150 12.73039399 1.11239018
O 10.37010328 8.15600870 1.09330145
O 14.28302734 8.15153053 3.31197789
O 14.27817771 8.15448939 7.81299753
O 14.25977435 12.70256677 7.83266362
O 9.08623718 9.10894410 7.79779839
O 1.33146288 9.05777456 3.33247492
O 5.19586788 11.78375939 1.06919260
O 6.46721227 12.67780077 3.30874011
O 5.19251678 11.80003917 5.53337841
O 2.59677859 8.15542278 5.58835103
O 2.62816484 12.68873904 5.55115960
O 5.21276368 9.04367861 1.09116331
O 5.19083346 9.05450277 5.56334441
O 1.31810186 11.80541748 7.81641712
O 1.30110634 11.79529310 3.30187035
O 2.60804735 12.70170448 1.05906485
O 2.61898947 8.15451731 1.09530139
O 6.51189135 8.11990793 3.33303698
O 6.51588069 8.17406040 7.81038064
O 6.49765885 12.71775465 7.78388383
O 1.32671853 9.07499752 7.82420120
O 1.33669706 1.78612156 3.29417950
O 5.18578198 4.49785187 1.11962029
O 6.46386044 5.34957942 3.37562471
O 5.19912169 4.42329554 5.72146111
O 2.58933407 0.90672545 5.48369779
O 2.59298391 5.41342018 5.57259938
O 5.20782463 1.76815303 1.11614294
O 1.29721786 4.49754829 7.82036004
O 1.34612558 4.54506535 3.31392116
O 2.61770095 5.42394318 1.04909716
O 2.60617766 0.84473672 1.08182668
O 6.46399977 0.74478089 3.41552132
O 6.57990211 0.92036670 7.79211083
O 6.50614315 5.44563372 7.82458642
O 1.31858233 1.77822656 7.83232103
O 9.07296416 1.75176744 3.37114656
O 12.96261016 4.49819300 1.11677033
O 14.27247965 5.41087500 3.33561432
O 12.97372580 4.51668730 5.59108143
O 10.41095801 0.85051725 5.55420396
O 10.37387499 5.42518326 5.59639097
O 12.97116320 1.75912047 1.06233037
O 12.99296542 1.76915024 5.56725433
O 9.07235020 4.51177581 7.83523478
O 9.07876128 4.49717248 3.34195074
O 10.37383454 5.40771270 1.09522207
O 10.36641719 0.87281005 1.10004259
O 14.29131745 0.88691588 3.31915444
O 14.25133088 0.84130719 7.83654966
O 14.25559321 5.41959854 7.84624558
O 9.10509996 1.79162477 7.81252283
O 1.32621414 1.77139460 12.32215324
O 5.17003541 4.53951692 10.08061302
O 6.49173006 5.39225421 12.32586762
O 5.19572050 4.50311204 14.57918005
O 2.62531531 0.84582329 14.56825866
O 2.61138236 5.41121434 14.56225445
O 5.18394279 1.78512128 10.07898405
O 5.21146691 1.76244089 14.54239914
O 1.29985406 4.48714473 16.77798486
O 1.32045790 4.51308173 12.31126475
O 2.58300601 5.43911025 10.05266558
O 2.61862346 0.85403320 10.07017254
O 6.51939597 0.86107791 12.31272143
O 6.47555701 0.84118459 16.78495616
O 6.49335904 5.41599910 16.83741587
O 1.30624119 1.74746059 16.78632961
O 9.09183848 9.05082930 12.32021417
O 12.97141697 11.78776605 10.07377564
O 14.26088932 12.72121347 12.30467193
O 12.97692092 11.81373837 14.54695070
O 10.38710379 8.14258238 14.57013685
O 10.39291589 12.71231189 14.56915372
O 12.98031476 9.03753378 10.06140114
O 12.96778542 9.06494374 14.55204884
O 9.10613228 11.81436441 16.79962419
O 9.09741858 11.79063869 12.32278309
O 10.37755937 12.72230356 10.07506269
O 10.36824610 8.17371772 10.05171563
O 14.27459266 8.17009308 12.31653931
O 14.24779448 8.14535636 16.80587656
O 14.27619751 12.69141389 16.79421484
O 9.07504827 9.07080764 16.78837028
O 1.33506005 9.08210895 12.31357306
O 5.19513615 11.80691362 10.05032992
O 6.51024772 12.70776294 12.29138280
O 5.20377138 11.81049537 14.54455708
O 2.61964075 8.16059960 14.56172449
O 2.60722910 12.70909349 14.54972444
O 5.21681283 9.04846648 10.07959712
O 5.20633036 9.06662030 14.54423317
O 1.31141103 11.76791960 16.77860052
O 1.31509372 11.81640363 12.30168939
O 2.60583290 12.72435223 10.05459614
O 2.60985774 8.17798591 10.06809651
O 6.51659294 8.13440800 12.32538492
O 6.50259541 8.15464667 16.78845572
O 6.51143007 12.70223231 16.79366631
O 1.30900825 9.02695398 16.80056224
H 9.11601815 2.73245009 12.28977296
H 9.55482143 1.47350031 11.50770310
H 13.43371728 4.84610129 10.85494670
H 13.43728009 4.84489302 9.30812993
H 14.24956282 6.39151336 12.35008389
H 13.80799150 5.12098097 13.11570131
H 13.42225384 4.78453710 15.36029341
H 12.99113627 3.52461173 14.57436027
H 11.28470321 1.18296691 14.53691619
H 9.95165463 1.18679281 13.75737182
H 11.28705891 5.05825752 14.54245033
H 9.95323257 5.08054145 13.75867500
H 12.03375543 1.47844350 10.06620745
H 12.92664336 2.74219199 10.07149330
H 13.44242227 1.40263106 15.30897891
H 13.44176763 1.42395046 13.76307618
H 9.54209853 4.79300807 16.00525305
H 9.08784197 3.53267623 16.77283576
H 9.52539531 4.85720658 11.50862774
H 8.18798467 4.83172337 12.28634028
H 10.40037884 6.39655815 10.05340487
H 11.30007350 5.13842616 10.06967991
H 9.91135960 1.16071885 9.25308032
H 10.35798439 14.50729627 10.04104098
H 15.17422122 1.18740650 12.26848385
H 13.82883667 1.19618477 11.50054459
H 15.17509374 1.13259838 16.77720009
H 14.29155698 14.46722845 16.78171279
H 13.79689604 5.11242701 17.61134069
H 14.24480948 6.36596935 16.82664218
H 9.51512365 1.41693115 16.00290228
H 8.16661939 1.41901764 16.76143787
H 9.55910814 8.72432599 2.57425739
H 9.58005685 8.73174679 4.12155132
H 13.41156167 12.14985942 1.89811613
H 12.07425185 12.15029602 1.12592194
H 14.30397403 13.70932964 3.33853001
H 15.17649593 12.43246229 3.33173964
H 12.07247845 12.12923720 5.54764204
H 13.41749012 12.15906843 4.78524339
H 11.33861107 8.45468076 5.57887233
H 10.42875470 7.20247300 5.59458506
H 9.91999612 12.40348883 6.34312234
H 9.90833952 12.37870313 4.79701506
H 12.94179566 10.03446261 1.10352212
H 12.04249449 8.77545989 1.09333900
H 13.46064157 8.77331174 4.76986050
H 13.01280820 10.03268292 5.54893830
H 9.51626954 12.16628460 8.60654340
H 8.17872302 12.16863722 7.82354039
H 9.06191317 10.82529717 3.33599654
H 8.15048724 12.07174977 3.32468637
H 10.37055482 13.69270537 1.13281046
H 9.92734236 12.42183194 1.89463927
H 9.90762463 8.45543804 0.30351980
H 10.36262442 7.19340705 1.07105375
H 14.26229112 7.18851663 3.29980119
H 13.81562994 8.45057370 2.52505153
H 13.85379103 8.48624533 7.01410595
H 15.17981767 8.49343840 7.80707958
H 14.24444729 13.66585141 7.81856049
H 13.80733926 12.40931566 7.03496527
H 9.10105331 10.07245407 7.78106725
H 9.56195602 8.80663792 7.01770091
H 0.42717078 8.72559565 3.34082166
H 1.75360766 8.73654584 4.13640219
H 5.66633735 12.08088013 0.28246930
H 5.20796901 10.82069067 1.05410873
H 6.00212273 12.34895785 2.53021396
H 5.99513535 12.34361476 4.08288768
H 5.16757569 10.83791853 5.54837589
H 4.27496128 12.10092883 5.54217018
H 2.15059813 8.46378531 6.38543033
H 2.57584890 7.19368661 5.61014168
H 2.15231805 12.38253571 6.32904697
H 2.14211150 12.37195723 4.78437622
H 5.68807106 8.70960679 1.85855666
H 5.67608834 8.71548906 0.31256150
H 5.62260360 8.72025851 4.77123737
H 4.28561401 8.72597209 5.55129891
H 0.41297276 12.13316869 7.84098850
H 1.75758672 12.14647617 8.60297917
H 1.31703276 10.83268080 3.28958708
H 1.76399370 12.09158948 2.51182768
H 3.52449849 12.40759069 1.06279254
H 2.62392434 13.66469062 1.06867632
H 3.52431143 8.48248350 1.10979338
H 2.18909874 8.47924257 1.89423050
H 7.42783071 8.41877116 3.34908545
H 6.53046501 7.15954165 3.35257708
H 6.06712655 8.49938442 7.02327699
H 7.41372495 8.52328551 7.78254484
H 6.02297097 12.39455111 8.55506056
H 6.02514856 12.39206496 7.01234266
H 1.33328355 10.03919394 7.83896745
H 1.77882418 8.78468206 8.62373152
H 1.35350786 2.74683485 3.31839375
H 1.78451911 1.47781092 4.09808944
H 5.64043850 4.83130852 0.33751960
H 4.28155461 4.82986997 1.07404891
H 5.98443916 5.04481360 2.59627770
H 6.00849335 5.00216389 4.14283379
H 5.13773618 3.49676042 5.90072430
H 5.67576860 4.80349504 6.47717999
H 2.63147691 14.55342682 5.52963237
H 2.17804668 1.19179085 6.30045382
H 3.48891728 5.07389541 5.58476426
H 2.17842425 5.09629262 4.76119779
H 5.21888021 2.73175630 1.14107528
H 5.64749988 1.45875450 1.90885281
H 1.30934276 3.53208291 7.81678449
H 1.74487690 4.78332163 7.01896456
H 0.43606977 4.86003020 3.30236437
H 1.76559733 4.87013800 2.51049733
H 2.60639917 6.38732028 1.03443983
H 2.15316929 5.12046828 0.26162666
H 3.50651364 1.18003583 1.10830525
H 2.16651720 1.18163128 1.87282857
H 5.98492722 0.94270414 4.20611820
H 6.46962011 14.37706613 3.35854535
H 6.07821934 1.20660104 8.55606526
H 6.51662615 14.56670494 7.77870251
H 7.41944707 5.13445573 7.83700819
H 6.53779277 6.40967439 7.81617513
H 0.42168552 1.43210638 7.84846913
H 1.76200884 1.43800776 8.61588677
H 9.54312678 1.42708744 4.15005822
H 8.18484213 1.39499302 3.41992309
H 12.94467793 3.53532159 1.09109877
H 12.04601407 4.79349959 1.10699535
H 13.79607273 5.06680838 2.57205284
H 13.80982878 5.09128116 4.11717717
H 12.06768606 4.83985611 5.61530643
H 13.40669514 4.84209872 6.38753007
H 11.32594402 1.15209943 5.56034780
H 10.43335146 14.48977787 5.56179218
H 9.90140723 5.09202164 6.36709044
H 9.90895566 5.09629508 4.82110097
H 12.06705727 1.42950254 1.05668039
H 13.39819449 1.42132209 0.26811064
H 13.46016099 1.48175000 4.77545642
H 12.99819226 2.73169532 5.55728472
H 9.09076892 3.54667792 7.84698846
H 9.54115234 4.80900202 8.62235065
H 8.16072248 4.78404591 3.35040536
H 9.06262276 3.53463246 3.35297246
H 9.90832240 5.07175662 0.32150992
H 9.90036428 5.08293833 1.86771625
H 9.89073264 1.19324066 0.32596367
H 9.90315284 1.20658653 1.87393515
H 15.19615460 1.21967641 3.29291971
H 13.85407352 1.20030659 2.52161865
H 13.77381826 1.18085963 8.60045687
H 13.79999195 1.17695906 7.05564651
H 15.16720949 5.10783189 7.83415049
H 14.29081908 6.38221917 7.83396944
H 9.54024881 1.45918504 7.02301241
H 8.19276899 1.46192181 7.79336973
H 1.77805939 1.46850931 13.11599589
H 1.33744244 2.73392599 12.34315588
H 4.26469027 4.86730804 10.04702448
H 5.61691812 4.87191912 9.29753366
H 6.00525762 5.08024768 11.55551773
H 6.02735310 5.06449197 13.10278356
H 4.29100860 4.83381338 14.59767007
H 5.63120161 4.83230955 15.37166126
H 3.54161884 1.14104528 14.55300639
H 2.64045956 14.48485065 14.55930953
H 2.13024854 5.07203100 15.32491418
H 2.14899485 5.09142646 13.78017288
H 5.66208142 1.48404302 10.85697282
H 5.19313926 2.74603295 10.10165578
H 5.67710815 1.46764352 13.75180533
H 5.21521860 2.72527918 14.52882959
H 0.38395474 4.78542884 16.79228621
H 1.28113008 3.52399347 16.78457099
H 0.41533043 4.84138841 12.29652708
H 1.74755909 4.84351566 11.51400040
H 2.57110818 6.40198833 10.03384916
H 2.12615983 5.13352334 9.26177998
H 2.18999612 1.18311463 10.86625341
H 3.52196320 1.19102504 10.08413056
H 7.43668342 1.15310703 12.31068057
H 6.53480909 14.50076928 12.30083885
H 6.01268265 1.17643612 17.55774682
H 6.01019713 1.17473368 16.00940412
H 7.40642590 5.11036471 16.81873964
H 6.52378630 6.37875207 16.82078815
H 1.77570075 1.42169419 17.56169551
H 1.78531627 1.42236195 16.01583653
H 8.18753458 8.71890747 12.34579463
H 9.53199996 8.71374189 13.10731851
H 12.98731785 10.82543219 10.05326245
H 13.42444089 12.08778580 9.27823987
H 13.80223394 12.41097729 11.51618403
H 14.24773493 13.68394331 12.27429578
H 13.44497689 12.14832744 13.77408656
H 13.45209500 12.13072349 15.32239627
H 10.41177183 7.17991178 14.57222479
H 11.30191512 8.44421150 14.55925265
H 10.40809971 13.67538465 14.55402335
H 11.31132837 12.42084800 14.55661846
H 12.07064663 8.72340128 10.03962580
H 13.40970081 8.70958204 9.26415384
H 13.43328488 8.77186883 13.76118182
H 12.97756792 10.02779056 14.53347273
H 9.57896557 12.14560031 16.02742282
H 9.57453393 12.14182107 17.57394479
H 9.55168848 12.09018726 13.11681322
H 9.10594480 10.82765011 12.34268817
H 9.94739952 12.38761794 10.86866520
H 11.27916342 12.38541214 10.08766063
H 9.90596232 8.49618796 10.83265233
H 9.90053668 8.51802191 9.28432354
H 13.84062512 8.48263221 11.51538328
H 15.17960787 8.49796323 12.29301879
H 13.78956714 8.47745449 16.02672353
H 13.77497965 8.48871948 17.57204470
H 13.83923930 12.37095860 17.59000503
H 15.17632997 12.34786423 16.81302470
H 9.09881422 10.03360322 16.77356923
H 9.54448374 8.76789639 16.00328543
H 1.34102737 10.04539956 12.33316242
H 1.78594739 8.78175195 13.10944907
H 5.21217312 10.84537506 10.07879668
H 5.66320679 12.11053354 10.83492213
H 7.41240501 12.37212661 12.31862794
H 6.07142930 12.38548384 13.08498046
H 5.63848440 12.13402515 15.34003122
H 4.29893783 12.13923358 14.56558366
H 2.60876231 7.19775058 14.57075305
H 2.15285534 8.44583060 15.35462303
H 2.13516300 12.36505350 15.31528695
H 2.14157710 12.39135300 13.76860580
H 5.68907875 8.71327860 10.84864518
H 5.68726250 8.73158152 9.30241044
H 4.29020888 8.76899033 14.55457504
H 5.18412627 10.02951714 14.53979191
H 1.77475177 12.07702681 17.56466641
H 1.32515560 10.80535060 16.80619639
H 1.75217927 12.14527372 11.50840344
H 0.40944453 12.14364644 12.27702632
H 3.51898553 12.41859556 10.05447249
H 2.63726566 13.68770081 10.05544678
H 3.52069941 8.48960937 10.09209881
H 2.18160776 8.50638068 10.86632691
H 6.04630112 8.44348024 13.10721162
H 6.49484589 7.17190850 12.34996482
H 7.40371445 8.49561658 16.76457751
H 6.06191610 8.48180883 15.99681157
H 7.43028842 12.41311909 16.79105895
H 6.52301348 13.66502693 16.79221410
H 0.40106633 8.70612728 16.82513781
H 1.74474129 8.70578484 17.59696818
