381

O 9.06343433 1.77636930 12.29147150
O 12.98810812 4.47777120 10.04793638
O 14.26859582 5.38014935 12.29979344
O 12.98317661 4.51222398 14.55297691
O 10.44017522 0.75129953 14.51723110
O 10.40866164 5.47511441 14.53766885
O 12.94566479 1.73777257 10.06020413
O 13.05251628 1.76047589 14.51341920
O 8.96336987 4.44844178 16.70189068
O 9.11898766 4.53444454 12.28322200
O 10.41004971 5.42986184 10.03152658
O 10.35756392 0.85484267 10.08630197
O 14.29541041 0.84867296 12.27653373
O 14.28518494 0.85709763 16.80548979
O 14.26158485 5.43508550 16.79120379
O 9.07789293 9.00639987 3.33467242
O 12.98319186 11.79182238 1.09909758
O 14.26592411 12.69755131 3.35422418
O 12.96242174 11.78777077 5.59159637
O 10.38207844 8.13091565 5.57704647
O 10.36855537 12.70700192 5.60096127
O 12.97209945 9.04937612 1.05407581
O 12.96077691 9.04166784 5.57496134
O 9.08224896 11.80655847 7.85488518
O 9.09508022 11.74649964 3.36215006
O 10.37572448 12.65811334 1.10867535
O 10.38955386 8.10654625 1.09121212
O 14.24819128 8.15262994 3.31070741
O 14.26475485 8.14449072 7.81463848
O 14.28726532 12.72397308 7.80199928
O 9.11519515 9.06287381 7.82737057
O 1.29902263 9.06753969 3.34398876
O 5.23398537 11.83185119 1.10526834
O 6.52199978 12.69848826 3.35090234
O 5.20750494 11.83397919 5.59353276
O 2.60726534 8.17294682 5.58604463
O 2.61375941 12.71164315 5.58779260
O 5.18074154 9.07695726 1.09101663
O 5.19604268 9.09828162 5.56859354
O 1.33250082 11.80787214 7.83714531
O 1.32670999 11.81100559 3.34232630
O 2.63624364 12.73888202 1.12054472
O 2.58940163 8.15503109 1.09371121
O 6.47335065 8.16419339 3.33100501
O 6.51719756 8.17070887 7.79863163
O 6.50430189 12.72677521 7.83166507
O 1.31569067 9.07253900 7.82495868
O 1.25898920 1.79368041 3.34802602
O 5.19241065 4.50052268 1.08584530
O 6.50091116 5.42387612 3.32525435
O 5.20208128 4.50191637 5.56747882
O 2.56689168 0.85345502 5.56188685
O 2.61713604 5.42623597 5.59233791
O 5.15457402 1.78722481 1.16023540
O 5.15620247 1.76042186 5.56467758
O 1.35126689 4.46592345 7.82761101
O 1.30971651 4.54417726 3.34300434
O 2.60505551 5.41427951 1.08259988
O 2.57027340 0.86804429 1.11973295
O 6.48385418 0.82414636 3.36536864
O 6.47545482 0.86268221 7.79360337
O 6.48352639 5.42789340 7.80969341
O 1.32350363 1.71813890 7.84167474
O 9.07342904 1.77888057 3.34432007
O 12.97474631 4.48209020 1.09248478
O 14.25034385 5.41679838 3.33667111
O 12.97881809 4.51246861 5.58721460
O 10.36620657 0.84977420 5.56366186
O 10.38680269 5.39541950 5.58295201
O 12.93541839 1.73806124 1.10963414
O 12.94557584 1.77093537 5.56747748
O 9.07302267 4.50610507 7.81819467
O 9.10074945 4.51822447 3.33420405
O 10.38940141 5.34406514 1.03066245
O 10.26171400 0.84008107 1.12741680
O 14.23261144 0.83507323 3.32401295
O 14.24495332 0.86063402 7.81742024
O 14.30377883 5.40085970 7.81932107
O 9.05627851 1.76549119 7.82352483
O 1.35595881 1.77722746 12.32707732
O 5.22010780 4.50900919 10.05970227
O 6.51219720 5.39076191 12.31664141
O 5.19489558 4.50127873 14.55000228
O 2.64999207 0.87191920 14.57488331
O 2.62601776 5.46128839 14.55285759
O 5.20393493 1.76677483 10.05857907
O 5.22830932 1.78408329 14.58750715
O 1.32136726 4.52182970 16.76729973
O 1.33540896 4.52241575 12.32350406
O 2.62096820 5.39442953 10.07240949
O 2.61902380 0.83758190 10.09346354
O 6.47450827 0.85123530 12.32170366
O 6.50552862 0.95235669 16.81025434
O 6.46139715 5.39541820 16.78582911
O 1.33030915 1.78004494 16.79860753
O 9.07283958 9.07975967 12.30628856
O 12.99074609 11.81465726 10.04578833
O 14.27708030 12.71861758 12.28977575
O 13.01619323 11.78596612 14.53770436
O 10.37015317 8.20010513 14.54674089
O 10.39406269 12.67794823 14.55079131
O 13.00377832 9.06807127 10.07444413
O 12.97698468 9.05973676 14.52392133
O 9.12539746 11.80363883 16.79388348
O 9.08854895 11.80616151 12.30940538
O 10.39921621 12.72160494 10.07936136
O 10.40817137 8.17142213 10.07649719
O 14.28704621 8.11560420 12.30475211
O 14.27592380 8.16508050 16.76075558
O 14.28745092 12.71219442 16.80117383
O 9.07394771 9.05901130 16.80943019
O 1.32387901 9.04761664 12.29836136
O 5.19167929 11.77183072 10.04252905
O 6.49502168 12.70389694 12.28155717
O 5.22965540 11.82519464 14.55503887
O 2.63265101 8.19455879 14.54680489
O 2.62886424 12.72681962 14.55981213
O 5.20875350 9.03213379 10.05585769
O 5.21924448 9.07985276 14.56737117
O 1.34063402 11.81680072 16.81776029
O 1.31974874 11.79253740 12.33949725
O 2.60402310 12.69921239 10.08940505
O 2.61556920 8.13626896 10.05149212
O 6.48907022 8.13786632 12.31787893
O 6.48466955 8.15175285 16.80513481
O 6.52966026 12.73095929 16.82253499
O 1.32667859 9.08417860 16.78000900
H 9.05081408 2.73715075 12.30174092
H 8.14815149 1.47996222 12.31435053
H 12.94735340 3.51522395 10.05202808
H 12.07858608 4.79384253 10.03713888
H 13.80544644 5.04720260 11.52360506
H 13.79721822 5.04939831 13.07191198
H 12.08355329 4.85244295 14.57115979
H 13.42055971 4.85087852 15.34136289
H 11.32458641 1.11673968 14.49440357
H 9.97334530 1.12072078 13.76763810
H 10.38626909 6.43932073 14.55727263
H 9.90599507 5.17163873 15.29480537
H 12.04016263 1.41070481 10.10016586
H 13.39889664 1.41447345 10.84640148
H 13.48268168 1.46231069 15.32011411
H 13.03467341 2.72118072 14.54873426
H 8.05571271 4.79146642 16.74208810
H 8.87420608 3.52318333 16.52834914
H 9.59169814 4.87320681 13.04868354
H 9.58752176 4.85225560 11.50422611
H 10.40106410 6.39273286 10.02181359
H 9.93370942 5.13474353 9.24859088
H 9.88916456 1.17964506 9.31158764
H 9.88225301 1.18697776 10.85807820
H 13.86860083 1.17913631 13.07644149
H 15.19944613 1.17812931 12.29773217
H 15.18831567 1.19177345 16.82988483
H 13.84125396 1.18134163 17.59340592
H 13.81578285 5.12838847 17.58625984
H 14.25342702 6.39849662 16.81274191
H 8.16429835 8.70163510 3.30519927
H 9.51418391 8.67242121 2.54447893
H 12.07578320 12.11131544 1.12182836
H 13.41334452 12.11117182 1.89931949
H 15.17224213 12.37107098 3.36972907
H 13.83277806 12.36337598 4.14676225
H 12.93783210 10.82487514 5.59137315
H 12.04737909 12.08727619 5.59594026
H 10.36871122 7.16782863 5.56755288
H 9.91237779 8.42102302 4.78782164
H 9.90214275 12.38793202 6.38123296
H 9.90187612 12.35959339 4.83395733
H 12.98243933 10.01250670 1.05052865
H 13.43380049 8.76533184 0.25756142
H 12.05695664 8.70862623 5.55450602
H 13.39037762 8.72522898 4.77354394
H 9.10671943 10.84402929 7.86917135
H 9.55219460 12.10896982 8.64005142
H 9.54851837 12.04098515 2.56584742
H 9.10317792 10.78354116 3.34116633
H 10.33614584 13.61558251 1.11138887
H 9.93309221 12.36769921 0.30055247
H 10.42249023 7.14634147 1.06418925
H 11.30099589 8.41877009 1.07840867
H 13.82533994 8.47896278 2.50941231
H 15.15065176 8.49008355 3.30636018
H 14.26998914 7.18165255 7.79593883
H 13.80203236 8.43507033 7.02153829
H 13.82026472 12.41592873 7.01828756
H 14.25747914 13.68661037 7.78385349
H 9.58293789 8.73637432 8.60340138
H 9.58428707 8.72901038 7.05572889
H 1.32383277 10.03026669 3.35715300
H 1.75714346 8.76907344 4.13704331
H 5.22129930 10.86996569 1.07546485
H 5.69358294 12.12812647 0.31021280
H 7.41800287 12.34642337 3.33410607
H 6.08464430 12.37870234 2.55305411
H 5.68340815 12.15893167 6.36568510
H 5.67905981 12.15415055 4.81713874
H 2.60542918 7.21029933 5.60995242
H 2.14783904 8.46944408 6.37930634
H 2.18388839 12.38059475 6.38391844
H 3.52415943 12.39824808 5.61182656
H 5.61604095 8.73966879 0.30102272
H 4.27596027 8.74828975 1.07033351
H 5.17301469 10.06139456 5.57659051
H 4.28167926 8.79624179 5.58079769
H 0.43172770 12.14943832 7.84159916
H 1.75649788 12.13275105 8.63925780
H 1.79547881 12.13805046 4.11768718
H 1.79923327 12.14506264 2.57187736
H 3.55490381 12.45061385 1.10862072
H 2.64265313 13.70227706 1.11719275
H 2.58164272 7.19208231 1.10793513
H 2.13463235 8.44995265 1.88943356
H 6.01318772 8.50589151 4.10558524
H 6.00194699 8.49621812 2.55916229
H 7.42320940 8.49616661 7.78116648
H 6.07669931 8.51696895 7.01571240
H 7.40850488 12.39597075 7.86465776
H 6.05592245 12.38450610 8.61256670
H 1.29415910 10.03587310 7.83353174
H 0.40060260 8.77276306 7.82483485
H 1.28847262 2.75577790 3.36890013
H 1.72210920 1.48400911 4.13434824
H 5.18843872 3.53652729 1.13510437
H 5.64917049 4.81357766 1.87319456
H 6.50589766 6.38720472 3.33227024
H 7.42026253 5.14073892 3.33005469
H 5.19899749 3.53888026 5.54517013
H 5.65803252 4.79794337 4.77308463
H 2.12969194 1.14043790 6.37120214
H 2.57002710 14.49251037 5.58189419
H 2.18764892 5.07683689 6.38076736
H 3.52121039 5.09478557 5.60234198
H 4.25089570 1.45620722 1.16749777
H 5.59303992 1.42760851 1.93680131
H 4.24871401 1.43873896 5.54068157
H 5.59740415 1.41441180 4.78162431
H 1.35591914 3.50320148 7.85043256
H 1.80155945 4.76603471 8.62479371
H 1.78474123 4.85488403 2.56498998
H 1.78561101 4.87109011 4.11394270
H 2.16985865 5.09031315 0.28683273
H 3.50878434 5.08220995 1.06217024
H 2.08694801 1.20421736 1.88116834
H 2.12356088 1.19922218 0.33303046
H 7.38961680 1.14591208 3.36329053
H 6.53032823 14.46350338 3.35734390
H 6.00140427 1.15047547 7.00623023
H 6.46835586 14.50159985 7.78941453
H 6.48401330 6.39057820 7.78184847
H 6.03240710 5.12545762 7.01440679
H 0.41283629 1.40655161 7.86221568
H 1.75473791 1.38678946 8.63689469
H 9.53671077 1.47124966 4.13299096
H 9.08864286 2.74243530 3.36851315
H 12.98605840 3.51996387 1.12114511
H 13.41928115 4.79011265 1.89020361
H 15.17031184 5.12969465 3.33523329
H 14.26575428 6.38043212 3.32236046
H 13.46274162 4.83042139 6.35716979
H 13.43824757 4.85147057 4.81116571
H 11.28116558 1.15133263 5.57074898
H 10.38900177 14.48904416 5.57711263
H 11.29457920 5.07484511 5.61818251
H 9.93945243 5.06630259 6.37045576
H 13.36463405 1.39071369 1.90118045
H 12.03234984 1.42020127 1.11640260
H 12.96696686 2.73380254 5.54834953
H 13.40574237 1.46568739 4.77894330
H 9.04419996 3.54313533 7.82841981
H 8.15929330 4.81047948 7.81281830
H 9.57355227 4.82551452 2.55565287
H 9.57713278 4.84485169 4.10597813
H 9.94894608 5.00045061 0.25308338
H 11.29704939 5.01819689 1.01536200
H 9.81114238 1.18754099 1.91294527
H 9.72232175 1.06700679 0.38506756
H 15.14205039 1.15486608 3.33027924
H 14.27509846 14.47461190 3.33952160
H 13.78506732 1.19930263 7.04280076
H 13.76378556 1.17824794 8.58945347
H 13.86235785 5.06581142 8.60713753
H 15.20585640 5.06420502 7.84274387
H 8.15099504 1.43630546 7.79279352
H 9.49538777 1.43683007 7.03354166
H 1.35896328 2.73991671 12.34871950
H 1.81082991 1.48021469 13.12256572
H 5.64145172 4.84912927 9.26315409
H 4.31233713 4.83082432 10.05111887
H 7.42374353 5.08190754 12.28345467
H 6.07875946 5.07094269 11.51810146
H 5.20784377 3.53552827 14.54153868
H 5.66623262 4.78902523 13.76071958
H 2.66392229 14.51127705 14.56729859
H 3.56932392 1.16297676 14.58536517
H 2.66225165 6.42408340 14.55300836
H 3.53541473 5.14418911 14.54704487
H 5.65412598 1.46788950 9.26195873
H 5.22204179 2.72948303 10.04008392
H 5.68976615 1.43900225 13.81681108
H 5.70948052 1.47689598 15.37018371
H 1.75812682 4.86800337 15.98135496
H 0.41628719 4.84903975 16.75136574
H 0.42379490 4.83297440 12.33761979
H 1.76459350 4.87235061 13.11133072
H 2.60528699 6.35738799 10.07889955
H 2.16627474 5.10601358 10.87144155
H 2.19656953 1.18337481 10.88773892
H 3.52193200 1.17282563 10.09374214
H 6.02350358 1.15130106 11.52637295
H 6.47315961 14.49119947 12.29202271
H 6.53959671 14.59776619 16.83061212
H 6.03767862 1.21826262 17.60268572
H 5.98617538 5.07102229 16.01062489
H 5.99335262 5.06825817 17.56351129
H 1.33980035 2.74209404 16.75870021
H 1.79514858 1.46723727 16.01413636
H 9.04601866 10.04366548 12.30040322
H 8.16056733 8.77209241 12.30309722
H 13.00805154 10.85197732 10.03871368
H 13.45132036 12.10756146 9.25266602
H 14.27297314 13.68207623 12.26897677
H 13.81875668 12.42182007 11.49649931
H 13.48029568 12.12017052 15.31137789
H 13.47440375 12.12906516 13.76314636
H 9.89315211 8.52362065 13.77388533
H 9.89867615 8.52070303 15.32258288
H 10.41758493 13.64813328 14.54433130
H 11.30929418 12.38520006 14.54265406
H 13.47526302 8.72718676 10.84192741
H 13.45711405 8.72890746 9.29556328
H 12.97305602 10.02402253 14.52305384
H 12.05576892 8.78037156 14.53333447
H 9.58134313 12.09777329 15.99524241
H 9.11758651 10.84172795 16.77472595
H 9.55533400 12.12642633 13.09043107
H 9.56936338 12.13965212 11.54456477
H 11.31741332 12.43254061 10.06645149
H 10.40668070 13.68507144 10.08273920
H 11.31272343 8.50090471 10.10611972
H 9.96137093 8.49889380 10.86409888
H 14.26328932 7.15269354 12.32504141
H 13.82007177 8.42360827 13.08875844
H 15.18021750 8.49666993 16.74233237
H 13.84031000 8.48590643 15.96327411
H 14.27080185 13.67475799 16.81927223
H 13.82092983 12.41278358 17.58798573
H 9.51532346 8.72094472 17.59461013
H 8.16805378 8.73299785 16.83368231
H 0.42586064 8.69925062 12.28181863
H 1.76282162 8.72402606 11.50472350
H 4.27765942 12.07403724 10.05952471
H 5.16888502 10.80915356 10.04465213
H 6.06407502 12.35929877 11.49313556
H 7.40359264 12.38510238 12.26835022
H 5.65367243 12.14864416 13.75329780
H 4.32562011 12.15557175 14.54201897
H 2.15730758 8.50557803 13.76863547
H 2.15772745 8.52241128 15.31821870
H 2.16768863 12.39899572 15.33823825
H 2.15405156 12.38716464 13.79380340
H 5.69076867 8.71348517 9.28584050
H 5.66956768 8.70434795 10.83529037
H 5.21177296 10.04367268 14.56144220
H 4.29755734 8.79918125 14.55931788
H 0.43485583 12.14404512 16.83909023
H 1.77743815 12.15354543 17.60686320
H 0.40465594 12.09313682 12.31766712
H 1.29739982 10.83006216 12.32229258
H 2.15485205 12.40136035 10.88770800
H 2.60796291 13.66218866 10.11625972
H 2.18124031 8.47688968 9.26239209
H 3.52394860 8.45530099 10.03166154
H 6.03546545 8.44403489 13.11012681
H 6.48574552 7.17536117 12.34548944
H 6.46228196 7.19075287 16.77336227
H 6.03618926 8.46629690 16.01149920
H 6.09608481 12.42117833 16.02195061
H 7.43397124 12.40543942 16.78820003
H 1.34602435 10.04705489 16.81609876
H 1.76977881 8.76996022 17.57523425
