381

O 9.07778528 1.77267588 12.31659294
O 12.96535775 4.49201850 10.05883330
O 14.26778812 5.41742176 12.29526275
O 12.97007671 4.52491645 14.54793736
O 10.39106697 0.85064571 14.53369937
O 10.37886244 5.43251249 14.55774022
O 12.98306958 1.75932459 10.08420596
O 12.98162140 1.78626050 14.56646323
O 9.08359453 4.49560958 16.79870964
O 9.09567520 4.50369878 12.31542933
O 10.38206311 5.40995452 10.07029623
O 10.38807913 0.86836235 10.08567619
O 14.27313930 0.87269199 12.33032780
O 14.29779784 0.86698285 16.79872240
O 14.27665233 5.40442809 16.79075145
O 9.09909774 1.74744070 16.78904754
O 9.11029538 8.96605212 3.34560811
O 12.95249301 11.81640032 1.07652522
O 14.28355429 12.74686688 3.28989436
O 13.05219384 11.85384383 5.55298188
O 10.43162713 12.74628254 5.59889445
O 13.00659618 9.07503549 1.03852746
O 12.93879093 9.07309445 5.44348944
O 9.08466834 11.78910584 7.80216889
O 9.11817486 11.79238965 3.36844290
O 10.36404712 12.71122274 1.11887640
O 10.41577855 8.14116056 1.02012778
O 14.27430822 8.14189791 3.31251577
O 14.22376807 8.16331628 7.78484299
O 14.26167904 12.74749784 7.84501388
O 9.01305795 8.97574377 7.84456633
O 1.30771992 9.06300780 3.30578667
O 5.20646166 11.80386301 1.10429611
O 6.50909283 12.69661278 3.36042750
O 5.18743546 11.77184538 5.56892854
O 2.58672448 8.14196576 5.56348171
O 2.59071316 12.71494280 5.58426282
O 5.22215579 9.06056034 1.12522856
O 5.19990605 9.03916689 5.54477846
O 1.31474217 11.83975411 7.84514221
O 1.32977450 11.80255328 3.33774926
O 2.61640757 12.72199002 1.09822710
O 2.63076926 8.16192170 1.08586395
O 6.54202314 8.13181456 3.33741624
O 6.48188656 8.12146575 7.80851608
O 6.50116942 12.67246908 7.81348445
O 1.29517891 9.09920030 7.79688885
O 1.30313972 1.74647863 3.34732745
O 5.16808773 4.47108658 1.07983912
O 6.49473322 5.36988717 3.30487466
O 5.18025616 4.48742371 5.54694781
O 2.60670266 0.86152748 5.59400194
O 2.58908552 5.39991936 5.58904339
O 5.19347412 1.73016504 1.11847763
O 5.20090882 1.74962802 5.58974643
O 1.29587545 4.51285069 7.83956310
O 1.30059691 4.48586621 3.35406865
O 2.58595934 5.42158294 1.11293642
O 2.59542819 0.85835138 1.09705180
O 6.50441711 0.82465507 3.36283666
O 6.49852721 0.81555361 7.81881697
O 6.46541577 5.41049794 7.79918500
O 1.33134134 1.77176287 7.84857583
O 9.09717821 1.76696435 3.34365471
O 12.95541824 4.52176879 1.08766297
O 14.26654357 5.41120508 3.34540526
O 12.90582699 4.58717026 5.60451803
O 10.37276258 0.88222471 5.60273793
O 10.22866505 5.51686346 5.52679435
O 12.97396003 1.78496499 1.07250872
O 12.93795454 1.80455891 5.57434963
O 9.02894931 4.50252776 7.84108030
O 9.08279694 4.53000423 3.31538388
O 10.36819450 5.42738763 1.09040396
O 10.38963308 0.86306639 1.10466326
O 14.23416013 0.88134556 3.33307326
O 14.26898932 0.87697806 7.81843983
O 14.24566421 5.43277687 7.83383744
O 9.08213994 1.75461139 7.85358178
O 1.33166612 1.76630458 12.31762200
O 5.20127315 4.48839974 10.04170646
O 6.49343875 5.37095655 12.30306783
O 5.19947707 4.49387376 14.55478118
O 2.64583057 0.86475198 14.53415483
O 2.62232566 5.41813186 14.55115097
O 5.20566192 1.74444565 10.05783357
O 5.23320769 1.75368191 14.56419513
O 1.33579580 4.51383919 16.79934896
O 1.31567806 4.50711354 12.31799173
O 2.60836583 5.41416281 10.06977478
O 2.61966611 0.83519015 10.07923078
O 6.49263369 0.83689522 12.31104443
O 6.50745142 0.83935661 16.81539315
O 6.48958315 5.39452953 16.80854982
O 1.35325250 1.77679350 16.77392409
O 9.09022903 9.06034689 12.33604275
O 12.98172097 11.82347985 10.08194020
O 14.26442545 12.73251178 12.33751912
O 12.94999916 11.80761443 14.57101845
O 10.38532041 8.16803950 14.58309110
O 10.35602613 12.71142149 14.54695366
O 12.99802551 9.08405119 10.09302504
O 12.98384214 9.06429271 14.56800214
O 9.07712600 11.82099272 16.80603078
O 9.08198896 11.79822976 12.28570497
O 10.38305550 12.71726944 10.04951101
O 10.40872182 8.12662060 10.11588139
O 14.28716414 8.15805835 12.31820074
O 14.32338965 8.14214260 16.77896620
O 14.27014332 12.72944567 16.79570645
O 9.06871415 9.09212441 16.78213474
O 1.33675754 9.08108352 12.29261227
O 5.22365655 11.76076257 10.06443672
O 6.49456845 12.69358806 12.30276406
O 5.20788467 11.79251205 14.54836452
O 2.64790991 8.16833934 14.51464005
O 2.62870571 12.72481022 14.57013094
O 5.22013898 9.01396447 10.05777489
O 5.23489459 9.05052465 14.55235402
O 1.33273739 11.80907434 16.80562861
O 1.32395244 11.82420017 12.33099806
O 2.63874863 12.69503336 10.08659114
O 2.59686986 8.15519157 10.03738058
O 6.50444183 8.11955564 12.31388345
O 6.49749764 8.14632728 16.81664611
O 6.48461774 12.70771957 16.79524274
O 1.37246353 9.06773809 16.76694549
H 8.16559815 1.46425991 12.31335746
H 9.05017789 2.73571300 12.32035382
H 12.94619402 3.52880302 10.06880852
H 12.04923372 4.79005013 10.06098911
H 15.16947871 5.07804460 12.28343819
H 13.83328476 5.08610589 11.50260278
H 12.06649559 4.85782474 14.52988163
H 13.40441320 4.84800117 13.75135008
H 11.29368843 1.18460740 14.52223639
H 9.95424611 1.19240661 13.74613635
H 10.36787989 6.39530283 14.59375512
H 9.92401912 5.12049753 15.34690416
H 13.46032559 1.43506511 10.85572465
H 13.44696066 1.43441464 9.30588753
H 12.98614565 2.74916873 14.58663887
H 13.44174845 1.48626782 15.35727634
H 8.16464522 4.78422540 16.80120824
H 9.06994610 3.53260495 16.79236389
H 9.55632238 4.84260530 13.09044476
H 9.56750733 4.83237627 11.54276903
H 9.90334232 5.12898143 9.28516314
H 10.38127109 6.37511913 10.06806658
H 9.94875345 1.19440377 10.87844370
H 11.29455241 1.19141441 10.11177284
H 13.83677197 1.21322318 13.11891738
H 15.18037831 1.19557127 12.35308532
H 15.21585420 1.15718078 16.78697976
H 14.30899731 14.50572506 16.79729872
H 13.80372206 5.08925291 16.01288587
H 13.79364118 5.08735043 17.56066014
H 8.19711815 1.41002081 16.78156708
H 9.52752128 1.42036566 15.99123813
H 9.13702994 9.92276804 3.37233415
H 9.56421846 8.70969945 2.54203587
H 12.03248221 12.10271934 1.09191851
H 12.94710288 10.85354925 1.06588173
H 14.25596575 13.70969428 3.27514785
H 13.81270916 12.44116066 2.50687286
H 13.49198307 12.16543987 4.75288446
H 13.05311508 10.89666766 5.50505978
H 10.43451640 13.70886512 5.60133608
H 11.34978924 12.46462664 5.58314060
H 13.48826835 8.74509466 0.27170200
H 13.46268886 8.73662835 1.81377859
H 13.40373916 8.72558483 4.66615023
H 12.02141497 8.88531486 5.31376119
H 9.54527886 12.11730741 8.58009985
H 9.56943729 12.12167878 7.04134804
H 9.55114646 12.12958997 4.15787733
H 8.20786249 12.10105813 3.39652429
H 10.35903478 13.67312871 1.14384082
H 9.91643141 12.40829954 1.91797272
H 9.95927308 8.49600813 0.25023716
H 11.31639823 8.47637459 0.99379996
H 14.30516635 7.17810129 3.32254840
H 15.18819503 8.45181185 3.31308455
H 13.75221071 8.43627990 6.99788246
H 14.22765072 7.19910629 7.78565018
H 13.78412169 12.41088412 8.61141057
H 13.81811898 12.41028107 7.06027072
H 9.06464687 9.93138400 7.81650453
H 9.50381344 8.70376401 8.62016631
H 1.77669466 8.77067710 2.51622862
H 1.32665529 10.02625059 3.29692836
H 4.30394651 12.13819423 1.08441972
H 5.63886761 12.12587471 0.30648622
H 6.02805447 12.35884486 4.12379057
H 6.04796479 12.37513893 2.57916420
H 5.16291045 10.80832465 5.55948831
H 4.27491995 12.07606660 5.57626688
H 2.12779036 8.49510123 6.33255055
H 2.12245320 8.47272516 4.78808814
H 2.14276807 12.42819778 6.38719004
H 2.59635945 13.67763294 5.60353538
H 5.23172738 10.02326866 1.14283187
H 5.69583844 8.76104753 1.90982404
H 5.65179456 8.70917887 4.75990157
H 4.30019278 8.70143625 5.51908333
H 1.76049018 12.14915999 8.64119992
H 0.41423152 12.17919209 7.87579011
H 1.75353197 12.12982401 4.13932207
H 0.43007724 12.14457273 3.33854443
H 2.59649373 13.68482049 1.11762039
H 2.16781331 12.41957790 1.89499179
H 3.53960158 8.48229065 1.08330486
H 2.21739489 8.48670252 0.27860653
H 6.54942771 7.17101147 3.32608309
H 7.46749994 8.41756690 3.34859691
H 6.06255882 8.46361072 7.01377611
H 7.39808435 8.44140454 7.80571366
H 6.06225019 12.34431667 7.02215339
H 7.40777418 12.34406774 7.78691484
H 1.27965411 10.06249537 7.81550469
H 0.38025130 8.80487825 7.79284460
H 1.74137838 1.41402752 4.13810836
H 0.39542693 1.42613374 3.37148906
H 4.25521655 4.77609315 1.09136874
H 5.14605731 3.50810482 1.09238329
H 6.01204293 5.04872415 2.53593276
H 6.02270999 5.04855569 4.08043079
H 5.16347135 3.52456015 5.56565670
H 4.26448482 4.78395683 5.55949869
H 3.51479151 1.18251792 5.60781681
H 2.18104618 1.19671760 6.39017938
H 2.57781942 6.36311210 5.59763093
H 2.13381970 5.11105280 6.38699286
H 5.62890016 1.40359529 1.91274230
H 4.28874741 1.40072752 1.13676938
H 5.67160314 1.41479454 6.36062362
H 5.66889400 1.41536496 4.81675935
H 1.75797068 4.81485684 8.62948087
H 1.32133575 3.55000012 7.85865836
H 1.75933578 4.78233646 4.14796760
H 1.32159067 3.52263049 3.36355481
H 2.13127979 5.12768843 1.90879125
H 2.59190206 6.38468562 1.12781882
H 2.14552998 1.19294371 0.31379656
H 2.11583984 1.18918653 1.86346891
H 7.41630212 1.13118594 3.35086175
H 6.53266544 14.46300612 3.36290721
H 6.51776696 14.45414363 7.81712207
H 7.41417600 1.11227779 7.83262533
H 6.46164795 6.37653623 7.77828452
H 6.01518477 5.11077268 7.00284919
H 1.76137086 1.42710250 8.63885831
H 0.42543330 1.44590477 7.85757776
H 9.10236932 2.72812919 3.31062734
H 9.55720152 1.46446865 2.55272660
H 13.39262756 4.84312813 1.88200864
H 12.05113319 4.85382862 1.10994521
H 15.16437782 5.05988172 3.37082849
H 13.82220678 5.10294975 4.14031244
H 13.34820097 4.89427041 6.40434974
H 12.01935208 4.94820171 5.61528190
H 9.89818652 1.19868623 4.82659970
H 9.89541299 1.19704666 6.37818264
H 9.81843995 5.16377501 4.72087583
H 10.03156978 6.44197447 5.52848503
H 12.97895075 2.74772467 1.05214739
H 13.44777984 1.48453026 0.28938965
H 12.02347374 1.49887773 5.59050558
H 12.90358897 2.76446852 5.58630924
H 8.11816191 4.82227487 7.82545678
H 9.43819579 4.83011356 7.03867725
H 8.16490934 4.82598252 3.28026105
H 9.51547638 4.86460193 2.52010215
H 10.37422121 6.39129250 1.04070170
H 9.91900627 5.11246351 0.29831379
H 11.29484640 1.18973170 1.07272309
H 9.95451897 1.17778156 0.30516760
H 13.75593550 1.21498614 4.09911451
H 13.78112628 1.21849825 2.55242483
H 14.24792639 14.51608441 7.79659045
H 13.80427157 1.18409458 7.03411692
H 13.81520587 5.09311903 8.62691157
H 15.15018611 5.10020088 7.84617751
H 9.07229096 2.71645509 7.87897532
H 9.54874082 1.46109869 8.64413623
H 1.81089628 1.43354416 13.08475691
H 1.79258680 1.43083842 11.54139049
H 4.29867845 4.82323019 10.03996267
H 5.62323752 4.83026937 9.24559057
H 6.06454038 5.04557881 11.50470611
H 7.40363010 5.05724930 12.28231833
H 5.65747315 4.79016948 13.76070768
H 5.22225591 3.53108991 14.53912401
H 3.56401010 1.15673708 14.54495884
H 2.66179676 14.50384720 14.54991601
H 3.52409244 5.07916355 14.56860477
H 2.19113232 5.10267718 15.35224764
H 5.66015258 1.43937535 9.26544309
H 5.21277364 2.70722077 10.02923687
H 5.70078537 1.42643898 15.34003881
H 5.69764704 1.41751930 13.79012078
H 1.75602627 4.84511425 17.60042230
H 0.42635301 4.83005892 16.81217044
H 1.77555595 4.80718226 13.10948836
H 1.33611218 3.54407397 12.33570309
H 2.15370254 5.11896867 10.86559061
H 2.59093155 6.37722164 10.08052337
H 3.53319991 1.14125150 10.07117371
H 2.65196518 14.47463604 10.08345369
H 6.48049733 14.47608449 12.28588797
H 6.03602568 1.13972827 11.51904133
H 6.48413364 14.47831527 16.83001663
H 6.04696425 1.13761316 17.60654825
H 6.02320592 5.07792007 16.02775513
H 6.00960091 5.05753824 17.57255615
H 1.35798751 2.73979565 16.75670614
H 1.81405642 1.48057846 15.98169311
H 8.19056877 8.71801579 12.34310255
H 9.51985563 8.73906949 13.13553985
H 12.99830695 10.86070990 10.10622302
H 13.43576973 12.12666866 10.87530354
H 14.25140470 13.69540764 12.35802053
H 13.79821201 12.43104628 13.12425897
H 12.03154846 12.09689844 14.56047781
H 12.94009501 10.84465731 14.56829950
H 9.94541593 8.51439743 15.36764302
H 11.29262699 8.48917091 14.60212126
H 10.35959009 13.67395223 14.51538809
H 9.90496402 12.41001147 13.75120175
H 13.47635824 8.74030571 10.85578203
H 13.44400437 8.75392788 9.30863932
H 13.46780070 8.73294508 15.33173839
H 13.44735472 8.73915245 13.78925800
H 9.54333747 12.14662019 17.58343671
H 9.54670101 12.15064839 16.03262120
H 9.54308048 12.09129449 11.49258493
H 9.09536932 10.83504123 12.27940994
H 10.40201340 13.67935902 10.06344311
H 11.29922173 12.42267806 10.06312491
H 11.30396462 8.47645172 10.12778207
H 9.96523731 8.46362329 10.90070570
H 15.20266592 8.45782733 12.31607262
H 14.30682056 7.19505242 12.30827240
H 15.24032456 8.43654340 16.77267963
H 14.33395055 7.17904806 16.78461168
H 13.79834804 12.40047918 16.02304866
H 13.79099778 12.40463565 17.56552103
H 9.03719569 10.05483881 16.79258427
H 8.15795261 8.77913731 16.79914633
H 1.80705198 8.77887261 13.07733183
H 1.33636696 10.04363711 12.32570109
H 5.23597876 10.79773344 10.04158853
H 5.67401736 12.06066681 9.26699480
H 6.06459818 12.35470980 11.50975970
H 7.40278052 12.37232833 12.27930609
H 5.22720856 10.82980963 14.52854991
H 5.66094617 12.09335576 13.75282750
H 2.65770454 7.20552732 14.52655154
H 3.56829056 8.45378296 14.52721908
H 3.52818863 12.38020940 14.57901690
H 2.19665581 12.39916726 15.36679421
H 4.31082746 8.70170655 10.02938059
H 5.65128458 8.68801687 9.25841558
H 5.69649950 8.72488574 15.33221631
H 5.70385568 8.71100553 13.78213577
H 0.42698122 12.13480527 16.82074203
H 1.76079758 12.13803630 17.60376329
H 0.42002247 12.15590203 12.34970738
H 1.75782921 12.15550594 13.12440974
H 2.20527202 12.37533125 10.88487438
H 3.53739913 12.34827065 10.09505685
H 2.12559676 8.49193521 9.26920838
H 2.14442152 8.50136751 10.81406668
H 6.05239828 8.42137388 11.51822229
H 6.48955578 7.15724177 12.28748038
H 6.04317158 8.44993236 17.61017634
H 6.48492247 7.18396578 16.84061397
H 7.39266994 12.38676877 16.78035020
H 6.05786717 12.37566395 15.99824362
H 1.82501752 8.78176707 15.96625502
H 1.36224556 10.03073843 16.75576495
