381

O 9.05486566 1.76236765 12.31879509
O 12.97776727 4.52234865 10.05750677
O 14.25058676 5.41435439 12.31228516
O 12.96198732 4.51925527 14.56098737
O 10.37958526 0.86989619 14.55247717
O 10.37234328 5.41263405 14.57094379
O 12.96446607 1.78041309 10.06940553
O 12.97272856 1.77228667 14.55625648
O 9.07314061 4.49579259 16.80487644
O 9.06425242 4.50592756 12.34498097
O 10.38682579 5.40925194 10.10816856
O 10.36486291 0.86889314 10.08886550
O 14.25138226 0.85941995 12.30654091
O 14.29144062 0.86558966 16.78700282
O 14.28499311 5.44435887 16.77163783
O 9.08840587 1.76464842 16.80787014
O 9.10526227 9.09523081 3.36467026
O 12.96699319 11.80040485 1.05875783
O 14.26305823 12.69142968 3.33228298
O 12.99234529 11.77212400 5.66580966
O 10.38757097 8.14653192 5.57419498
O 12.96361217 9.06355887 1.07655716
O 12.96252815 8.96721873 5.56274299
O 9.10589556 11.92974767 7.78427684
O 9.07728580 11.90673904 3.33802208
O 10.36872130 12.70624623 1.00261393
O 10.36149334 8.15671919 1.09147044
O 14.26269175 8.09883477 3.29989060
O 14.29628605 8.13696384 7.81618157
O 14.26914827 12.70026764 7.83251133
O 9.11419949 9.11089438 7.78567300
O 1.30094095 9.03756114 3.34616515
O 5.20983173 11.82701339 1.09930050
O 6.52119951 12.72523877 3.31697169
O 5.21765683 11.78930371 5.56643490
O 2.60108706 8.16721871 5.60081909
O 2.61554919 12.70716126 5.56603527
O 5.19572985 9.07815636 1.09177861
O 5.21043122 9.05246146 5.56991587
O 1.32166227 11.82616769 7.82932820
O 1.30847091 11.79053724 3.33298980
O 2.62544442 12.73192420 1.12039948
O 2.61195047 8.16131631 1.11535984
O 6.51149178 8.16517601 3.31886630
O 6.52946157 8.13209252 7.78279183
O 6.54702928 12.74196108 7.77062686
O 1.34272265 9.08879520 7.84906468
O 1.32546210 1.74740413 3.34668142
O 5.19575480 4.49613170 1.12181961
O 6.51076556 5.41967420 3.34131151
O 5.20325647 4.52985464 5.58032980
O 2.60375769 0.84260762 5.59948923
O 2.60572109 5.41990155 5.57387059
O 5.20180522 1.75819089 1.11024774
O 5.17362675 1.78804733 5.59285435
O 1.30284286 4.49021036 7.80899204
O 1.30325955 4.47944242 3.34551495
O 2.59702465 5.40883408 1.11021686
O 2.61208794 0.86100399 1.08686502
O 6.47184260 0.84312578 3.36482591
O 6.44658468 0.85471436 7.82900636
O 6.55349897 5.40107610 7.81604088
O 1.31452737 1.74521787 7.84436943
O 9.02822788 1.77906335 3.28659421
O 12.97687079 4.50808783 1.04777588
O 14.24846403 5.36447236 3.31139936
O 12.94862000 4.45214349 5.55336173
O 10.25422037 0.80527641 5.61263559
O 10.38407867 5.40199930 5.58554951
O 12.98469236 1.76235714 1.07709075
O 12.92931704 1.71660778 5.58888947
O 9.12524884 4.45598454 7.84704827
O 9.09384964 4.53729738 3.32208224
O 10.39906095 5.42566332 1.07577991
O 10.40510779 0.85365509 1.07166723
O 14.25787951 0.84070690 3.33437594
O 14.27343824 0.83206340 7.83760384
O 14.25211023 5.39316883 7.78864047
O 9.07610654 1.71692805 7.84047635
O 1.31355627 1.74667644 12.31447499
O 5.20309182 4.51584048 10.04132259
O 6.47877044 5.43163558 12.29668932
O 5.20497103 4.51333190 14.54666179
O 2.63592679 0.85713685 14.54387009
O 2.60642893 5.40545562 14.52163751
O 5.18522689 1.77125878 10.08590108
O 5.22280706 1.76840077 14.57840246
O 1.32890555 4.52227096 16.78327112
O 1.29492527 4.47995110 12.29501981
O 2.59857146 5.39923994 10.05928686
O 2.61056120 0.83909067 10.08097023
O 6.46592535 0.83506045 12.32320241
O 6.50105427 0.85604167 16.81771373
O 6.48272325 5.40263732 16.80953010
O 1.33777929 1.78392074 16.77460873
O 9.08314523 9.10122821 12.31834140
O 12.97701521 11.76511522 10.09186069
O 14.26279947 12.72068060 12.32602576
O 12.97028612 11.80981214 14.57542746
O 10.39320023 8.15802477 14.55134936
O 10.39469649 12.73370778 14.56686548
O 12.98208311 9.02045518 10.07109579
O 12.98294531 9.06662798 14.55019237
O 9.04945906 11.77543125 16.75918612
O 9.09893303 11.84023847 12.33296043
O 10.42862308 12.71457340 10.10758847
O 10.35889988 8.16270010 10.07494983
O 14.28703091 8.15327148 12.31951463
O 14.27652589 8.17425259 16.78996035
O 14.29397504 12.72246993 16.79406275
O 9.07193772 9.03990160 16.78856242
O 1.33945534 9.07594789 12.32652180
O 5.24386842 11.79199250 10.03183678
O 6.49373004 12.69198403 12.30663835
O 5.20297863 11.78285884 14.53792723
O 2.61893137 8.14745045 14.56732627
O 2.63522503 12.71698129 14.56090481
O 5.21921626 9.05781068 10.01189972
O 5.20638213 9.04286123 14.54272875
O 1.35099775 11.82355504 16.81166049
O 1.32806003 11.81934921 12.31541246
O 2.63120178 12.69973397 10.06270592
O 2.63667782 8.14846219 10.08698771
O 6.49822531 8.17624182 12.27832391
O 6.48419070 8.14944669 16.80150562
O 6.46861936 12.71539205 16.77869554
O 1.32660606 9.07751718 16.81304897
H 9.49120722 1.44112588 11.52196900
H 8.15388376 1.42391255 12.29834505
H 12.07264747 4.84963946 10.09046467
H 13.41252947 4.84580669 10.85394856
H 13.79311396 5.12253485 13.10795045
H 14.26292643 6.37712788 12.33628492
H 12.94766125 3.55626494 14.56019941
H 12.04329780 4.80896152 14.56370597
H 9.91060504 1.16516207 13.76485347
H 10.36861413 14.50922578 14.53776497
H 9.90286885 5.08260587 15.34460808
H 9.89576239 5.08426824 13.80075604
H 12.94952780 2.74345941 10.05993608
H 12.04708471 1.48964768 10.07575252
H 12.06808875 1.44239765 14.54048007
H 13.39968828 1.44649302 13.75679117
H 9.05412019 3.53250232 16.80964180
H 8.15737189 4.79333379 16.80922337
H 8.15011535 4.80785467 12.32582050
H 9.03955983 3.54312947 12.33599183
H 10.35623244 6.37104042 10.11059132
H 9.92105371 5.11434146 10.89750852
H 10.39096059 14.50971564 10.08044793
H 9.91283674 1.14024708 9.28106693
H 13.82174897 1.19715989 11.51322706
H 15.16074008 1.17595849 12.29014660
H 15.19338896 1.20300408 16.76235408
H 13.84997570 1.19114657 15.99551284
H 13.81761282 5.13915894 15.98651890
H 14.27056264 6.40734343 16.75041748
H 9.57481714 1.43899718 17.57364694
H 9.55200992 1.44370322 16.02723028
H 9.56174734 8.77416709 4.15195233
H 9.13380564 10.05167335 3.40000957
H 12.06466945 12.12955760 1.01641722
H 13.42096439 12.13338329 0.27717996
H 14.24662837 13.65354459 3.32076071
H 13.80325606 12.40183461 2.53970290
H 12.98204844 10.81717072 5.60507575
H 13.39647746 12.08636771 4.85683358
H 10.39170247 7.18296814 5.58188623
H 11.31426039 8.42117533 5.57086206
H 12.04771965 8.76842068 1.07552830
H 12.94479361 10.02691935 1.07612442
H 13.45475467 8.66599014 6.33250992
H 13.43496054 8.65482981 4.78516525
H 9.57416878 12.39777278 7.10940552
H 8.19016921 12.24894135 7.75681444
H 8.15904199 12.21997534 3.35194962
H 9.53534869 12.37778116 4.01737170
H 9.89002072 12.37297879 0.23431278
H 9.89646317 12.39416542 1.77588144
H 10.36561849 7.19299697 1.10882598
H 9.92218266 8.45234986 1.89381798
H 14.24077562 7.13647331 3.27044322
H 13.80234373 8.41720911 2.51686988
H 13.84923631 8.46356000 8.60331445
H 15.19411243 8.48284391 7.84510944
H 13.80993448 12.36225593 8.60587367
H 13.79375726 12.36164137 7.05769779
H 9.57476548 8.78589740 7.00263064
H 9.13660054 10.06698504 7.73950083
H 0.40078754 8.69443566 3.35328995
H 1.72864439 8.72442871 4.14988570
H 4.30520190 12.15977015 1.09249050
H 5.62841318 12.14426147 0.29150946
H 6.06087598 12.42769026 2.52276834
H 6.47986595 13.68953298 3.31806835
H 5.23033565 10.82556863 5.55601377
H 5.67204427 12.08186485 4.77099256
H 3.50671666 8.49226850 5.60564437
H 2.18056087 8.50416861 6.39955661
H 3.51664010 12.37157413 5.54512126
H 2.17410875 12.37359121 4.77721691
H 4.28165116 8.77328917 1.10631278
H 5.16909129 10.04048625 1.09303494
H 5.66839435 8.72313948 4.78961436
H 5.68764213 8.71011264 6.33340987
H 0.41069691 12.14462762 7.81127326
H 1.74718385 12.14462973 7.02710819
H 1.28092128 10.82844682 3.33870110
H 0.39209648 12.09230596 3.33873490
H 2.15475928 12.42175915 1.90205311
H 2.60131470 13.69486280 1.13892417
H 2.60079046 7.19853825 1.12596679
H 2.14841118 8.44862436 1.91026960
H 6.07281865 8.49292113 2.52640308
H 7.40998914 8.50811031 3.30709265
H 6.57329688 7.16907262 7.79723456
H 7.43544654 8.45431449 7.79016953
H 6.07012509 12.43142565 6.99294513
H 6.48013758 13.70534503 7.77693759
H 1.79708476 8.79167380 8.64359021
H 1.34416376 10.05221449 7.86390319
H 1.79868947 1.42666210 2.57234744
H 1.78532354 1.40801534 4.12156708
H 5.67262557 4.83231088 1.88823822
H 5.65855643 4.82191453 0.34295402
H 7.42843095 5.12470630 3.33226282
H 6.53166633 6.38193727 3.33151671
H 5.69026016 4.84263489 6.34957774
H 5.67603877 4.85015775 4.80465569
H 2.60185337 14.48168139 5.61331374
H 2.14093142 1.13520746 6.39219011
H 2.61856497 6.38272011 5.58088152
H 3.52488122 5.13334500 5.58009387
H 5.21272042 2.72122606 1.13679040
H 5.64307669 1.45549213 1.91079190
H 4.25933904 1.48420838 5.58961573
H 5.15246036 2.75085563 5.58270585
H 0.39726968 4.81800553 7.78033374
H 1.74267859 4.82071403 7.01904128
H 1.32371006 3.51627447 3.37030416
H 1.76356542 4.78898335 4.13241438
H 2.15769105 5.06826816 1.89694844
H 3.50077380 5.07839135 1.13471383
H 3.51682453 1.19031390 1.06797490
H 2.17816143 1.19235592 0.29365685
H 6.04091343 1.18153328 4.15697112
H 7.37241011 1.18885652 3.36096587
H 5.98940248 1.18512009 8.60988088
H 5.98263188 1.20874540 7.06247169
H 7.45039752 5.05036923 7.84872613
H 6.09977656 5.07947050 8.60223554
H 0.39822010 1.44504102 7.84176300
H 1.29109565 2.70782655 7.82717397
H 9.06383377 2.74031120 3.27806829
H 9.50987560 1.47671004 2.51132245
H 13.45327233 4.85278022 0.28498104
H 13.44372015 4.81569543 1.83243778
H 13.80422559 5.03142256 4.09861102
H 15.15408480 5.03750486 3.34600260
H 13.41050655 4.75764952 6.34062980
H 12.95123773 3.48788572 5.58449466
H 11.17566376 1.06667433 5.58579901
H 9.85824578 1.14825182 4.81093145
H 11.28432207 5.05691590 5.59143820
H 9.95661867 5.05769858 6.37633249
H 12.98898185 2.72492335 1.04868692
H 13.45103617 1.46374094 0.28901946
H 13.40241885 1.39071468 4.81764745
H 13.40028333 1.38543096 6.35904275
H 9.12994154 3.49217732 7.86346254
H 9.57643556 4.75536910 8.64230915
H 9.57507493 4.86198311 2.55398338
H 9.56631855 4.84450488 4.10316388
H 11.30359075 5.09480185 1.04285097
H 9.94879761 5.08744082 0.29430502
H 10.42048381 14.49440271 1.05103845
H 11.32244814 1.14893503 1.08180163
H 13.82703580 1.18155437 2.54439453
H 15.16147655 1.17020712 3.31946782
H 13.80404072 1.13576275 8.62038975
H 14.25502330 14.47024820 7.85644010
H 13.80258223 5.10588534 8.59046465
H 14.25681881 6.35605854 7.80871268
H 9.49195008 1.38745290 7.02880738
H 8.16315981 1.41692108 7.82415207
H 1.78244024 1.41461311 11.54111805
H 1.79107248 1.42532158 13.08665989
H 5.17878659 3.55309491 10.05952317
H 4.28653599 4.81121543 10.04224234
H 6.48307213 6.39414807 12.26906742
H 6.03022886 5.13342055 11.49841102
H 4.29673597 4.83223798 14.51841289
H 5.63765507 4.84588861 13.75304551
H 2.65776325 14.49641285 14.55370987
H 3.55129331 1.15594439 14.55390646
H 2.14485802 5.07943237 15.30141593
H 2.12934117 5.07074858 13.75466696
H 4.28244822 1.43531930 10.10381461
H 5.61827527 1.43888186 10.87928692
H 5.22907512 2.73148950 14.58266062
H 5.67824497 1.48157326 15.37720421
H 1.75921792 4.84319236 17.58277424
H 0.42585055 4.85771588 16.79808600
H 1.27643785 3.51665842 12.29988850
H 0.37982891 4.77983022 12.30001405
H 2.12883130 5.05952343 10.82840487
H 2.12718003 5.07822599 9.28330137
H 2.15287606 1.14278352 9.28910909
H 2.60843635 14.47872823 10.05101996
H 6.45608482 14.47476306 12.34238366
H 6.02749458 1.13773577 13.12558444
H 6.06820267 1.18099410 17.61463802
H 7.40861067 1.17795377 16.84036422
H 6.02759193 5.11079820 16.01261027
H 6.47353167 6.36537234 16.79202687
H 1.79807472 1.48273201 15.98418469
H 1.34605887 2.74694041 16.75607685
H 9.54501090 8.78641989 13.10239847
H 9.10665737 10.06372500 12.35028080
H 12.99718704 10.80253054 10.11041763
H 13.43497516 12.07213160 10.88122052
H 14.24086672 13.68368117 12.33339199
H 13.80840296 12.42536419 13.12170865
H 12.98488476 10.84677961 14.58460874
H 13.44250946 12.10387606 15.36175052
H 10.37659769 7.19501116 14.56808690
H 9.92622841 8.45109808 15.34091924
H 11.29757187 12.39797913 14.59502849
H 9.94278228 12.38850108 15.34356566
H 12.07497007 8.70091169 10.09349592
H 13.41752157 8.68836398 10.86326949
H 13.41656927 8.73822237 15.34529487
H 12.07880560 8.73528396 14.56897192
H 9.02741988 10.81200258 16.76465826
H 8.13584549 12.08027432 16.75906555
H 9.56349318 12.17121274 13.10961771
H 9.58307823 12.16074932 11.56494388
H 11.32758600 12.36398957 10.08139580
H 9.98312170 12.40084948 9.31918537
H 9.89392288 8.51091521 10.84288019
H 9.90890656 8.50278677 9.29671840
H 15.18949434 8.48912275 12.33484294
H 13.85062702 8.49197967 13.10849338
H 13.83427462 8.49674226 17.58266892
H 15.18061263 8.50595587 16.81845579
H 15.21043903 12.42604069 16.80169772
H 14.31552487 13.68538147 16.79183047
H 8.16843972 8.70640854 16.81219553
H 9.50678630 8.72194943 17.58721316
H 1.34982000 10.03890206 12.33819802
H 1.79187448 8.78057482 13.12352598
H 5.69782039 12.09781170 9.24190072
H 5.24737983 10.82893930 10.00091050
H 7.40711318 12.38638989 12.29430152
H 6.07686756 12.36346337 11.50340734
H 5.21543728 10.81950863 14.52813914
H 5.66174260 12.07351796 13.74218889
H 2.59237741 7.18449129 14.57027919
H 2.16406254 8.44422680 15.36222531
H 3.53340744 12.37006075 14.52887449
H 2.18755546 12.39802820 13.77024081
H 5.64640930 8.70938892 9.22278676
H 4.31465915 8.72562957 10.01580386
H 5.63652116 8.72010897 13.74396548
H 4.30220534 8.71068173 14.52893698
H 1.81480389 12.15905889 17.58622175
H 1.82266942 12.14835175 16.03739309
H 0.42381336 12.15011414 12.29945361
H 1.76082471 12.14272460 11.51847726
H 2.19170029 12.37959757 9.26681807
H 3.53521420 12.37290536 10.03334340
H 2.18342207 8.45018871 10.88121567
H 2.60330706 7.18599368 10.09529485
H 6.07391508 8.50346406 11.47854536
H 7.39966052 8.51468412 12.27622664
H 6.02377354 8.47425475 16.02033404
H 6.00930433 8.48940960 17.56719143
H 6.46994868 13.67856135 16.76569104
H 6.01479769 12.42073987 15.98176018
H 1.78154325 8.77760813 17.60716328
H 1.35235188 10.04017312 16.82566747
