381

O 9.04597457 1.73197786 12.33775643
O 12.98520875 4.47379501 10.07837816
O 14.29708132 5.41342874 12.31524033
O 12.99443902 4.50183651 14.52625664
O 10.38232466 0.84936645 14.57442098
O 10.39729415 5.38799979 14.54407750
O 12.96836422 1.74651545 10.06719700
O 12.96492829 1.76332587 14.52322005
O 9.10928898 4.51406261 16.80631915
O 9.09015718 4.46620679 12.31160954
O 10.39558194 5.37479041 10.07031794
O 10.35592056 0.86474725 10.07695680
O 14.28740658 0.82731426 12.30750218
O 14.23412564 0.83822875 16.77463422
O 14.28815767 5.40532704 16.78680248
O 9.08039489 1.77495981 16.82373375
O 9.05673405 9.08478236 3.32066834
O 12.95290870 11.82236977 1.10359262
O 14.27533108 12.69297350 3.37078319
O 12.89356464 11.95353397 5.69867607
O 10.40733073 8.17803169 5.53589160
O 10.34707697 12.76082620 5.58059575
O 12.93570812 9.08141890 1.08582280
O 12.99017260 9.14558908 5.58590892
O 9.07958589 11.81426770 7.79166861
O 9.06102239 11.83095041 3.33087248
O 10.38149422 12.73104392 1.09298607
O 10.35899673 8.17461908 1.08876233
O 14.23869283 8.18450763 3.31559154
O 14.26518646 8.12146099 7.76704639
O 9.11127597 9.06866975 7.79681090
O 1.31559077 9.02812631 3.32841832
O 5.18753112 11.81071434 1.09096491
O 6.46853527 12.71038868 3.34376034
O 5.17992808 11.79959400 5.59278027
O 2.60018990 8.16597449 5.58649924
O 2.57826876 12.69873418 5.59971931
O 5.18626175 9.06034471 1.08311343
O 5.19220233 9.06942850 5.57144616
O 1.28660105 11.88445382 7.95750835
O 1.32067402 11.76088786 3.35682928
O 2.59121449 12.70100733 1.09954661
O 2.60873387 8.11486003 1.10602064
O 6.46616994 8.15845697 3.33210861
O 6.51398914 8.18861342 7.81239014
O 6.49485982 12.70497335 7.82199561
O 1.32528190 9.08246571 7.82419312
O 1.33642777 1.77960716 3.36052987
O 5.21051464 4.51134389 1.08950126
O 6.48344879 5.41875154 3.34785851
O 5.19843286 4.49857849 5.59264389
O 2.65375107 0.85986345 5.58545291
O 2.61094647 5.42183505 5.58022322
O 5.17835125 1.76434907 1.09154945
O 5.23094502 1.75597645 5.59984461
O 1.31177425 4.50145871 7.82684916
O 1.32395956 4.51874683 3.32865658
O 2.61576093 5.38119571 1.06404929
O 2.59113477 0.83739111 1.11745944
O 6.47979018 0.85395302 3.33135411
O 6.52643651 0.84622002 7.82374178
O 6.49563905 5.43670146 7.82734211
O 1.34814984 1.77313657 7.82386043
O 9.05481782 1.78929484 3.33374996
O 12.99157068 4.50813565 1.09036840
O 14.26903123 5.43130898 3.34561537
O 12.96635752 4.50984030 5.57398276
O 10.37220711 0.87790704 5.55993421
O 10.39028145 5.43286566 5.57087285
O 12.95318048 1.76400916 1.07383758
O 12.94396336 1.77602014 5.51259744
O 9.08163607 4.53490385 7.81022425
O 9.07934472 4.52638201 3.33952088
O 10.40196366 5.43339333 1.10080858
O 10.36324750 0.86381712 1.11486480
O 14.28893395 0.84541024 3.28135387
O 14.21796038 0.89638867 7.68914039
O 14.25506407 5.38987098 7.83043539
O 9.08899746 1.78731271 7.80917647
O 1.34909429 1.77582841 12.32000886
O 5.20237704 4.51021164 10.06379184
O 6.50370762 5.40610742 12.30672811
O 5.25206531 4.48620292 14.57244242
O 2.62898444 0.85305640 14.56766954
O 2.65894582 5.41037179 14.57588510
O 5.21832233 1.76530451 10.06122588
O 5.21688523 1.74737700 14.54589010
O 1.32987131 4.45557634 16.76893623
O 1.35421501 4.52313569 12.32737742
O 2.61499389 5.41499611 10.06317360
O 2.63137268 0.84759508 10.09349436
O 6.46502946 0.80600929 12.30766691
O 6.48641511 0.86099546 16.80063310
O 6.52153330 5.41544750 16.80747484
O 1.29658994 1.71324576 16.80043763
O 9.07303279 9.04235728 12.29260951
O 13.04530416 11.78823028 10.11779191
O 14.29975350 12.70002456 12.29513176
O 12.99368978 11.78074506 14.55290538
O 10.37725547 8.13363816 14.53372103
O 10.41487212 12.71104381 14.53096888
O 12.97053108 8.99909409 10.04747607
O 12.96979215 9.03576793 14.55872470
O 9.11167977 11.80982160 16.76108483
O 9.11518173 11.78668424 12.29654849
O 10.39179443 12.71851437 10.05699264
O 10.36140290 8.11445060 10.04175441
O 14.26937542 8.15869005 12.30391282
O 14.25156696 8.15150146 16.81360564
O 14.27727065 12.69507970 16.80677324
O 9.08615321 9.06577427 16.77254292
O 1.33368555 9.07504879 12.31554882
O 5.21047617 11.80553777 10.06518739
O 6.51928639 12.67523770 12.30036825
O 5.22018066 11.79303224 14.54450736
O 2.59747619 8.14860300 14.57105096
O 2.63456266 12.71026369 14.55253208
O 5.19939336 9.06887199 10.04573754
O 5.17405157 9.05764926 14.56079134
O 1.32706545 11.78952389 16.77971024
O 1.33078241 11.81714731 12.31285970
O 2.62753411 12.73629762 10.10380452
O 2.62491852 8.15666498 10.06969627
O 6.47105541 8.15972755 12.31072236
O 6.49545539 8.15769084 16.79937312
O 6.50679980 12.70870654 16.79042845
O 1.30528971 9.04136869 16.81491518
H 9.48993917 1.40848013 13.12836401
H 8.14752208 1.38677337 12.35669423
H 12.99320459 3.50897551 10.09722428
H 13.44684906 4.77467153 10.86715145
H 15.21605634 5.12512736 12.31685073
H 14.30888079 6.37646388 12.30159037
H 13.47106345 4.84082163 13.75973258
H 13.45743044 4.82625953 15.30496922
H 11.28198399 1.19380906 14.57142636
H 9.95663515 1.17996166 15.37150502
H 9.95496896 5.04511368 13.76023246
H 11.30570981 5.06939823 14.51316631
H 12.06328089 1.42289762 10.09595978
H 13.41392017 1.39379536 10.84303271
H 13.42908727 1.44780334 13.73979275
H 12.99277785 2.72575026 14.49483063
H 9.58180722 4.83107344 16.02916190
H 9.58021825 4.84858932 17.57687077
H 9.04566359 3.50379588 12.32330419
H 8.18158923 4.78429213 12.30925685
H 11.30193376 5.04898643 10.09631051
H 9.95551273 5.03429176 10.85625328
H 9.90091746 1.20997934 9.30312624
H 9.87725449 1.17989722 10.84973380
H 15.19847867 1.13472463 12.30666520
H 14.31667874 14.46565203 12.29981918
H 13.75937851 1.17721635 17.54083147
H 13.77967011 1.17243055 15.99365462
H 14.26787124 6.36767774 16.81196835
H 13.83013726 5.10209886 17.57773287
H 8.16473319 1.47764639 16.81103204
H 9.06286899 2.73789405 16.81755232
H 9.02875706 10.04722299 3.32848161
H 8.14375123 8.77853614 3.33333345
H 13.38599449 12.13541186 1.90238976
H 12.05114144 12.16329118 1.12059764
H 13.84279207 12.42067019 4.18109657
H 15.17024259 12.33651146 3.38904496
H 11.96605181 12.23463887 5.63572728
H 13.22335069 12.37667776 6.47742601
H 9.95573570 8.50336531 4.75012253
H 11.30151649 8.53066996 5.51536455
H 10.33439320 13.72599571 5.59668052
H 9.88539779 12.45369086 6.37082629
H 12.91845934 10.04443802 1.08574844
H 12.01812652 8.78661709 1.08702897
H 13.44107110 8.79321945 6.36278909
H 12.98529149 10.09901327 5.67624899
H 9.07951512 10.85131610 7.79726062
H 8.15783812 12.09278999 7.80861364
H 9.49234547 12.16419432 4.12375141
H 8.15434906 12.15606260 3.35230054
H 9.90887881 12.42821475 1.87500904
H 10.35897706 13.69433826 1.11547757
H 9.87689134 8.50229006 1.85545299
H 9.89381315 8.49349594 0.30776361
H 13.79198255 8.54439796 4.08712430
H 13.76189964 8.50742067 2.54276743
H 14.28407429 7.15735814 7.78481161
H 15.17832208 8.41990738 7.79641500
H 9.56488808 8.72017998 8.57246634
H 9.58288958 8.74207806 7.02440888
H 1.75683982 8.68646001 2.54219159
H 0.40397305 8.71936426 3.29485600
H 5.63037725 12.14065911 0.30200179
H 4.28316154 12.14091675 1.06404514
H 5.99717348 12.38155505 4.11610230
H 6.00310717 12.37730424 2.56884893
H 4.26352236 12.09131966 5.59814341
H 5.16405074 10.83576406 5.58384454
H 2.14336221 8.44670447 4.78588059
H 2.59364739 7.20220441 5.58015255
H 2.09419220 12.41650921 6.37659224
H 2.11346498 12.35439006 4.82871809
H 5.19087654 10.02298326 1.06654106
H 5.65130198 8.76756808 0.29153249
H 4.28981504 8.73353192 5.55997465
H 5.61968879 8.73871543 4.77335372
H 0.41575761 12.22819048 8.09034252
H 1.79446093 12.18781020 8.72842216
H 1.33931015 10.79791122 3.31721836
H 1.76456615 12.07835340 2.56260196
H 2.57721952 13.66435726 1.08985771
H 2.13891216 12.40676225 0.30165900
H 2.64151262 7.15203565 1.08753508
H 3.52003447 8.42648747 1.09344990
H 6.01444526 8.45120510 2.53320046
H 6.46220770 7.19521647 3.31928136
H 6.07567428 8.50989770 7.01787759
H 7.42116500 8.51094531 7.78372142
H 6.02704882 12.38225674 8.59966660
H 6.01707857 12.37816226 7.05254435
H 1.32443626 10.04045324 7.83272877
H 1.78242353 8.80117911 7.02322397
H 1.33436171 2.74277950 3.37230889
H 1.79717795 1.48950343 4.15460981
H 5.66905974 4.83812538 1.87048439
H 5.68882818 4.84616888 0.32298932
H 6.05084317 5.08375393 4.14057844
H 7.39129367 5.09825554 3.36897019
H 5.21738488 3.53614398 5.62254293
H 5.65371543 4.81001014 6.38209387
H 3.57381607 1.14699204 5.59014201
H 2.65977198 14.50131663 5.57523256
H 3.51398787 5.08769416 5.56534469
H 2.18120963 5.09904985 4.78114666
H 5.20345939 2.72672742 1.07476613
H 5.63761883 1.46329572 0.29992934
H 5.70887717 1.42133061 6.36704506
H 5.69203106 1.43384049 4.81819033
H 1.33541078 3.53735107 7.80997099
H 1.76659936 4.80114461 7.03343496
H 1.75134696 4.83094372 2.52426997
H 0.42154401 4.85500860 3.31688347
H 3.52246698 5.05610237 1.05272578
H 2.18597444 5.04243238 0.27146888
H 2.17010770 1.18009091 1.91321374
H 3.49376533 1.17314927 1.11763531
H 6.46438740 14.49354154 3.31385920
H 6.01506330 1.15300732 2.54240545
H 6.54499753 14.48576250 7.83170824
H 7.44188321 1.14773165 7.82375843
H 7.41222604 5.13952981 7.82448266
H 6.52056056 6.39897762 7.82141346
H 1.80233558 1.43616930 8.60103737
H 1.82198913 1.43643530 7.05761554
H 8.14155234 1.48371371 3.33271415
H 9.03121346 2.75214766 3.33675670
H 12.98750987 3.54506028 1.10566016
H 13.44496031 4.79823335 1.88839509
H 14.23776578 6.39284767 3.35778977
H 13.81184811 5.12834657 4.13802583
H 13.42266813 4.78275250 6.37710162
H 12.96950525 3.54536742 5.56714230
H 11.28066035 1.20165410 5.52263164
H 9.92515007 1.20852611 4.77357569
H 11.30281744 5.12259183 5.57274020
H 10.42338374 6.39463060 5.55559670
H 12.04684431 1.44064720 1.11509234
H 13.40807346 1.42133494 1.85050836
H 13.41664695 1.45285488 6.29628840
H 13.42235637 1.44558075 4.74752005
H 9.56268670 4.83773134 8.58787414
H 9.55604376 4.86786777 7.04107930
H 9.55321062 4.85068926 2.56659357
H 9.55643399 4.85069078 4.11102767
H 10.41759368 6.39615201 1.09808114
H 11.31758719 5.13563124 1.10088722
H 9.89669195 1.19239522 0.33814039
H 9.88986986 1.20302646 1.88230451
H 14.32117199 14.48704930 3.30265142
H 15.20017296 1.15547024 3.30887046
H 15.12582025 1.19330535 7.75502540
H 13.79492284 1.15143194 8.50984079
H 13.82459213 5.06134447 8.62782734
H 15.15887316 5.05658584 7.84702215
H 9.55496657 1.49325904 7.01947049
H 9.09289628 2.75009569 7.78788709
H 1.35426510 2.73850683 12.34143670
H 1.79941179 1.47802227 13.11723575
H 5.63698373 4.84990148 9.27433487
H 4.29436123 4.83096482 10.04010576
H 6.48635421 6.36863035 12.29358873
H 6.03958816 5.11289355 11.51531145
H 5.69060457 4.79167533 13.77119442
H 5.25407764 3.52336041 14.54002345
H 2.15959685 1.13788553 15.35902671
H 2.61892836 14.49211771 14.57630647
H 3.56329295 5.08149931 14.60055118
H 2.21032615 5.05493650 15.35078677
H 5.22725940 2.72824606 10.04349891
H 5.67442938 1.46804460 9.26725508
H 4.30689421 1.43128401 14.53742591
H 5.63694673 1.40275658 13.75002268
H 1.28764196 3.49343529 16.77613845
H 0.42065697 4.77393012 16.77338892
H 1.83349323 4.84965282 13.09584205
H 1.81736756 4.84650177 11.54743026
H 2.60015986 6.37749814 10.04244258
H 2.14968806 5.11144135 9.27609100
H 3.53345437 1.18425882 10.10238874
H 2.19664365 1.19418321 10.88104470
H 6.46730511 14.44539492 12.27563869
H 6.02819508 1.11710593 11.50789699
H 6.03911843 1.15028305 15.99762870
H 6.48777153 14.50058470 16.78153984
H 7.42794277 5.09008170 16.78929532
H 6.09174737 5.07784040 16.01362530
H 0.38999579 1.38780196 16.81198571
H 1.72181750 1.39676630 17.60404000
H 8.15149254 8.76416816 12.30123311
H 9.07267458 10.00565091 12.29292943
H 12.99386750 10.83249998 10.08492876
H 12.14435156 12.10783254 10.06305104
H 13.83062026 12.36585815 11.51418935
H 13.82841585 12.36950760 13.06494461
H 12.99442112 10.81818340 14.57018192
H 13.45125125 12.07346227 15.34707784
H 10.37101278 7.17068247 14.51721585
H 9.91756535 8.42841187 13.74036953
H 10.43255631 13.67390731 14.54110269
H 11.33074890 12.41192889 14.53674880
H 12.06211391 8.68287844 10.03077326
H 13.39216254 8.68111809 9.24508340
H 12.06442721 8.70914585 14.52727084
H 13.40733845 8.71680336 13.76213945
H 9.58778633 12.14110887 15.99121938
H 9.57499545 12.13908634 17.53720449
H 9.59070644 12.12067099 13.06435030
H 9.57713697 12.12054817 11.51889439
H 9.93504864 12.42468301 9.26464500
H 10.37623389 13.68059195 10.04200116
H 10.35739922 7.15199128 10.07892843
H 9.90755564 8.42390583 10.83247771
H 15.16864621 8.50046239 12.28527317
H 13.83290036 8.47056027 11.50322078
H 13.77120693 8.49186506 17.57566645
H 13.78845159 8.46748442 16.02988488
H 13.81002245 12.41034861 17.59866689
H 14.25187051 13.65782999 16.80498548
H 9.54439362 8.75489775 15.98435944
H 9.10920201 10.02824114 16.74522434
H 1.78722833 8.73466842 13.09375489
H 1.80618682 8.73966629 11.54715811
H 4.31103697 12.14495881 10.10662134
H 5.66211231 12.11637000 10.85803387
H 7.42951801 12.35950215 12.31985213
H 6.08825389 12.34657055 13.09675668
H 4.30923868 12.10657481 14.54490454
H 5.17779866 10.83054659 14.55268933
H 2.13531332 8.44397580 15.36299559
H 2.60301388 7.18574656 14.59611675
H 2.15896136 12.39141656 13.77777542
H 2.16272476 12.37313160 15.32171762
H 5.67274435 8.77561495 9.25958387
H 5.21406867 10.03176660 10.03403469
H 5.61857760 8.72898173 15.34902214
H 4.26922788 8.72797281 14.59272550
H 1.30404578 10.82702456 16.79254766
H 0.41105793 12.08808790 16.78783887
H 1.31680377 10.85412114 12.31240938
H 0.40956933 12.10780367 12.30573392
H 2.62231318 13.70179800 10.12779696
H 2.17110044 12.43137451 10.89818925
H 2.18514581 8.49043741 9.28234591
H 3.53135001 8.48282130 10.03743518
H 6.00646650 8.49085337 11.53557745
H 5.99556551 8.48237245 13.08329199
H 6.52576987 7.19497880 16.80188216
H 7.40908216 8.46204515 16.78449465
H 6.07347749 12.37445179 15.99781385
H 7.41449728 12.38908639 16.76372817
H 0.39792543 8.71846977 16.83799576
H 1.74162867 8.70875420 17.60592701
