381

O 9.09620145 1.75663813 12.30402949
O 12.95205432 4.49273414 10.05800319
O 14.24236643 5.39769097 12.30512607
O 12.96166360 4.50523111 14.55823906
O 10.38528546 0.85902458 14.54840087
O 10.38830847 5.44544775 14.56482514
O 12.96361396 1.75380666 10.10310219
O 12.97648027 1.76381998 14.57629696
O 9.08746541 4.52130095 16.79716773
O 9.10870020 4.49994927 12.31561359
O 10.36588751 5.40822400 10.04116744
O 10.38028327 0.83562971 10.06303801
O 14.27097796 0.85935341 12.33914279
O 14.30509874 0.83318113 16.80011564
O 14.24692763 5.40535136 16.80641507
O 9.10309932 1.78158298 16.78105350
O 9.09550520 9.05486606 3.31132598
O 12.93590383 11.78765197 1.09601715
O 14.30516034 12.65921870 3.32463979
O 13.00089142 11.78199990 5.56161190
O 10.35086888 8.13742886 5.58222021
O 10.41005007 12.67571393 5.57214433
O 12.94879644 9.05984273 1.06063525
O 12.95950319 9.05562108 5.59272955
O 9.10620667 11.79139265 7.81000033
O 9.08835699 11.79797423 3.32969592
O 10.34267996 12.73349873 1.09424756
O 10.38110820 8.15528849 1.05947239
O 14.18853452 8.13084735 3.23488085
O 14.24724634 8.15019889 7.86015199
O 14.25107007 12.70300525 7.81563942
O 9.06961557 9.05052780 7.81852948
O 5.21734135 11.81911153 1.07494534
O 6.49481594 12.73847644 3.32595261
O 5.23420336 11.81303644 5.57296697
O 2.65844259 8.23106360 5.59091744
O 2.66203159 12.71017225 5.61206873
O 5.16827085 9.10408778 1.16005478
O 5.18853530 9.10108916 5.55578615
O 1.30985438 11.79501036 7.84368057
O 1.44709197 11.76044880 3.26436355
O 2.63332413 12.68294165 1.04209714
O 2.62941919 8.27177346 1.07237154
O 6.51190762 8.17120603 3.35319579
O 6.47411364 8.17877612 7.83071734
O 6.52641720 12.70198710 7.83486928
O 1.31761359 9.04284634 7.89257524
O 1.33061519 1.75251133 3.34237328
O 5.18304148 4.51189214 1.07879271
O 6.47826499 5.43302231 3.33318443
O 5.21306198 4.49693267 5.58081655
O 2.60695759 0.86422054 5.60669921
O 2.64592496 5.42088186 5.54866078
O 5.19038162 1.77026052 1.10262868
O 5.20246446 1.75930278 5.61667860
O 1.32208805 4.50503328 7.79734467
O 1.33151828 4.49426083 3.32217640
O 2.61607320 5.46172573 1.08697987
O 2.61844166 0.82105091 1.08920773
O 6.49768490 0.87600048 3.35389381
O 6.49672737 0.84414326 7.85688561
O 6.46126707 5.42345959 7.83784615
O 1.28258056 1.76833620 7.83938530
O 9.09284079 1.77124631 3.34186752
O 12.95260535 4.47517668 1.09376473
O 14.23295778 5.33247903 3.33175062
O 12.94753260 4.47215449 5.60462322
O 10.36845163 0.82112687 5.59398336
O 10.37129360 5.39952767 5.59142144
O 12.99411354 1.72675679 1.09509048
O 12.96748013 1.73484483 5.60893450
O 9.04805395 4.48094780 7.82482265
O 9.08636613 4.51897660 3.34142560
O 10.38672160 5.40312393 1.08663698
O 10.38776911 0.87921859 1.09119366
O 14.27517846 0.82675421 3.34968740
O 14.24128612 0.83260709 7.86072941
O 14.25731733 5.41505724 7.82950371
O 9.08067927 1.74430696 7.83173552
O 1.31794786 1.77032371 12.31278777
O 5.18199844 4.51557057 10.07915761
O 6.51573813 5.42408785 12.29630506
O 5.22131616 4.51933345 14.53624890
O 2.64437190 0.86559686 14.52593300
O 2.61974359 5.38371475 14.53198833
O 5.18971891 1.77440260 10.07989642
O 5.22122223 1.77908964 14.56275944
O 1.30193902 4.51487859 16.78423737
O 1.30013801 4.50986645 12.30176008
O 2.58639493 5.41421821 10.06263233
O 2.60441699 0.85119861 10.07482728
O 6.50205512 0.86976666 12.31830436
O 6.50782091 0.86895658 16.79924176
O 6.49776662 5.41100524 16.79479325
O 1.35090274 1.76405584 16.77254546
O 9.07470939 9.06270428 12.27978633
O 12.97460575 11.81791364 10.07425350
O 14.27241768 12.71931733 12.32264590
O 12.97741496 11.81464050 14.56167920
O 10.35130838 8.19548328 14.55133060
O 10.38754336 12.72284362 14.55984523
O 12.97319264 9.07299444 10.09958940
O 12.94648418 9.07377698 14.53119494
O 9.07332036 11.81544513 16.77961378
O 9.10101089 11.80714195 12.31601701
O 10.38126380 12.69528454 10.06379120
O 10.38920937 8.14652938 10.04538852
O 14.28031418 8.14490229 12.33380947
O 14.26347961 8.13703196 16.74586525
O 14.23864047 12.69763473 16.81779150
O 9.04575776 9.07571305 16.80239035
O 1.31941509 9.04993967 12.31546033
O 5.22128100 11.83093267 10.08155835
O 6.51810529 12.73798150 12.31630840
O 5.19612760 11.81599806 14.53834101
O 2.66774171 8.11193364 14.50082055
O 2.60705471 12.72405542 14.53408501
O 5.17830551 9.09146476 10.07544538
O 5.23087022 9.07382708 14.56051544
O 1.28476239 11.78464752 16.74109565
O 1.31992276 11.78654433 12.29836501
O 2.62516698 12.71043452 10.07140333
O 2.61578091 8.14800493 10.09819965
O 6.48605524 8.15759168 12.29639313
O 6.45695681 8.14814110 16.84197694
O 6.49231749 12.72696045 16.77439864
O 1.33124684 9.03864704 16.67165953
H 8.18648477 1.44118318 12.28489578
H 9.52561692 1.42327583 11.50883796
H 13.39934209 4.82428116 9.27193330
H 12.04709347 4.81999932 10.02327054
H 13.76765333 5.07167717 11.53323865
H 13.77935319 5.06523423 13.08179966
H 13.40044002 4.82963166 15.35226362
H 12.06297430 4.85162909 14.58145722
H 10.37710574 14.49774530 14.53432628
H 9.93230406 1.15021434 13.74977560
H 9.92465511 5.14745912 15.35483694
H 10.36243200 6.40792758 14.57456950
H 12.97181879 2.71696334 10.10209052
H 13.42344296 1.46926579 10.90008464
H 12.94808034 2.72655360 14.57214152
H 12.06201855 1.46177038 14.57123493
H 9.54779356 4.81133593 17.59301883
H 9.10477774 3.55824525 16.80459536
H 9.12036049 3.53713581 12.33751595
H 9.56354017 4.80507349 13.10722837
H 9.88179234 5.07368769 9.27843126
H 9.91232468 5.08129170 10.82491187
H 10.40563103 14.47484564 10.06277001
H 11.29462096 1.13841061 10.08131055
H 14.26417693 14.49830038 12.35422438
H 13.81404749 1.15304356 13.13489317
H 13.85743688 1.16873918 16.01680647
H 15.20910268 1.16349097 16.76685703
H 13.78589424 5.10823834 17.59860966
H 14.23204987 6.36883090 16.81277892
H 8.19921217 1.45029669 16.77159088
H 9.53224333 1.44466624 15.98689461
H 9.55465631 8.76114848 2.51677681
H 9.10433955 10.01809004 3.29687421
H 12.02205161 12.08631788 1.10262875
H 12.91922355 10.82337627 1.08746930
H 13.82963377 12.37200385 2.53952620
H 14.29820831 13.62019122 3.31339341
H 13.00075812 10.81787868 5.55280652
H 13.46818903 12.06791437 4.76790715
H 9.91488985 8.43911111 4.77897166
H 10.34823940 7.17495508 5.55737389
H 9.97291888 12.35058106 4.77830005
H 11.31955607 12.35730498 5.54118355
H 13.41113368 8.71798937 1.84278012
H 13.42769864 8.74033813 0.29195092
H 12.05721615 8.72423331 5.60474622
H 13.38815488 8.72609442 6.38721262
H 9.10901983 10.82831703 7.79415115
H 9.57263686 12.08274590 7.01847532
H 9.51389033 12.14306860 2.53636576
H 8.18654940 12.13370744 3.32130296
H 10.35415577 13.69615312 1.07171061
H 9.89638113 12.44026052 0.29327397
H 10.40815706 7.19308311 1.06907901
H 11.29856764 8.45568259 1.05751678
H 14.19861318 7.17544998 3.29202850
H 13.79918276 8.44439984 4.05130108
H 15.15042188 8.47944807 7.88253747
H 13.81352662 8.48549864 8.65220490
H 13.82330316 12.37381194 7.01638150
H 15.15673857 12.37684140 7.79907095
H 9.54932454 8.72583653 8.58824459
H 9.53150154 8.71403655 7.04222505
H 4.30673967 12.13721460 1.04096060
H 5.65318155 12.14386577 0.27939931
H 6.04083178 12.44772203 2.52828411
H 6.48893134 13.70178031 3.31488466
H 5.65618550 12.15603970 4.77746057
H 4.32898500 12.14744865 5.57467393
H 3.56649267 8.57227493 5.55232933
H 2.18154960 8.65576980 4.89397577
H 2.18430330 12.40465650 6.38874237
H 2.62274317 13.67138930 5.62548857
H 5.21714721 10.06854853 1.14694206
H 5.64920882 8.80456094 1.93983240
H 5.22298913 10.06638858 5.54157314
H 5.66600834 8.79195293 4.77711915
H 1.77250592 12.10209720 8.63046930
H 1.31684009 10.83400198 7.88068092
H 0.52635338 12.02205851 3.30363695
H 1.84729648 12.08343465 4.07212858
H 2.14778491 12.35041109 0.28215400
H 2.18521232 12.34729068 1.83382244
H 2.13385987 8.71813655 1.74231504
H 3.53971784 8.60277684 1.13458409
H 6.51810820 7.20760598 3.34698614
H 7.43283676 8.45744435 3.33646070
H 6.04819472 8.51022318 7.03530787
H 7.38481609 8.49459392 7.80997071
H 6.09059564 12.38158525 7.03847945
H 7.43086388 12.37051602 7.80665920
H 1.78535043 8.71805000 8.67166007
H 1.80530181 8.72804382 7.13026396
H 1.34809196 2.71427795 3.30455565
H 1.78108044 1.43529685 2.55291319
H 5.18704090 3.54814120 1.07130614
H 5.65477450 4.79546930 0.28810004
H 6.01497491 5.09816601 2.55872895
H 6.01918570 5.08681256 4.10559697
H 5.65700122 4.80244044 6.37940336
H 5.21798379 3.53347337 5.61240398
H 2.14487466 1.18201567 4.82378559
H 2.11995792 1.19015469 6.37026678
H 2.66735443 6.37818717 5.55034257
H 3.56210372 5.11900688 5.56026605
H 5.63017797 1.45162595 1.89747778
H 4.29356503 1.41827901 1.11882570
H 5.63459902 1.41947812 6.40740650
H 4.29484779 1.43670447 5.63342937
H 1.78423094 4.78759137 7.00340917
H 1.31699987 3.54133458 7.79299963
H 1.80659658 4.82779063 4.08920720
H 1.78271531 4.84399668 2.54819702
H 2.64077194 6.41888251 1.09891792
H 3.53034918 5.15475109 1.07906907
H 2.60493384 14.45972774 1.05814856
H 2.16972475 1.12897501 0.29552721
H 6.06905313 1.19567110 4.15430242
H 7.40300336 1.20464753 3.36802298
H 6.52374393 14.48346651 7.85180514
H 7.41304886 1.14199429 7.84639998
H 6.45954332 6.38582120 7.85247865
H 6.00343015 5.13280774 8.63417110
H 0.38094231 1.42974715 7.86694260
H 1.72735541 1.43944164 8.62748546
H 9.54999090 1.47958974 2.54578113
H 9.10435075 2.73383070 3.32819466
H 12.97627683 3.51265193 1.10077915
H 13.41024020 4.76393533 1.89277556
H 15.14388610 5.02820543 3.36037155
H 13.80595466 5.01919933 4.13500595
H 13.40990375 4.78398756 6.38917523
H 12.96382855 3.50929635 5.63333390
H 9.92171089 1.13102639 4.79955077
H 10.36453591 14.46076274 5.56036438
H 11.27517850 5.06572923 5.61137851
H 9.93254048 5.06610850 6.38042718
H 13.45420616 1.39858603 1.87527727
H 13.47572316 1.40020705 0.32805104
H 13.39198914 1.40159918 6.40657619
H 12.06353833 1.40422485 5.61816504
H 9.02750194 3.51787328 7.82306062
H 8.13494203 4.78456105 7.82342206
H 8.18258464 4.84743968 3.35564736
H 9.51688714 4.84317291 4.13997244
H 9.95247779 5.08816526 1.88572840
H 11.28827511 5.06205819 1.10842485
H 11.30052806 1.18663585 1.07155616
H 9.96240538 1.21288607 0.29465315
H 13.83685914 1.14916286 4.14300845
H 15.17584160 1.16510909 3.37133885
H 13.78614685 1.12682816 8.65677868
H 14.23016624 14.47115813 7.86673499
H 15.17395232 5.12233477 7.82098730
H 14.27301973 6.37859958 7.83818921
H 9.55797706 1.42129306 8.60377340
H 9.54677834 1.41032770 7.05748753
H 0.40317092 1.46766162 12.31978607
H 1.29048371 2.73303580 12.30571151
H 5.62532012 4.84226211 10.86931663
H 4.27540483 4.83864354 10.10550806
H 6.54064365 6.38693272 12.29427391
H 7.42911149 5.11889583 12.30076894
H 5.65504934 4.84870998 13.74175071
H 4.31179696 4.83430937 14.51237124
H 2.17262410 1.16264829 13.74007158
H 2.62459331 14.50475960 14.51306047
H 2.13709380 5.06322234 13.76187282
H 2.14395749 5.07414090 15.30985148
H 5.20175620 2.73666472 10.05115735
H 5.65313315 1.46492129 9.29414148
H 5.19839578 2.74183617 14.55418055
H 4.30608930 1.47735109 14.54753886
H 1.73720591 4.85650366 17.57021502
H 0.39220995 4.83253117 16.81171767
H 0.39435832 4.83714204 12.28034660
H 1.73260132 4.83740694 11.50560919
H 2.14657945 5.11807218 9.25880540
H 2.58338098 6.37719775 10.04800371
H 2.17116436 1.18201191 10.86891428
H 3.50654153 1.18787375 10.09090642
H 6.02305248 1.19944494 11.55070316
H 6.04031291 1.19772013 13.09765659
H 6.03731869 1.20708416 16.02951918
H 6.03654637 1.19052259 17.57459201
H 7.40684277 5.09100017 16.77967603
H 6.07434139 5.08986759 15.99157113
H 1.35050842 2.72629213 16.76321760
H 1.81267966 1.47580920 15.97820096
H 8.16902106 8.73742280 12.25359256
H 9.51782632 8.72393799 11.49477440
H 13.44264404 12.13615976 9.29459930
H 13.44279302 12.15703578 10.84432944
H 13.83646712 12.38804477 13.11546467
H 15.17313522 12.37925238 12.33660747
H 12.07339591 12.14661324 14.57725449
H 13.40265731 12.13601875 15.36492694
H 9.88391710 8.51175049 13.77124240
H 9.87246048 8.52245239 15.32016377
H 9.90977268 12.39286052 15.32892712
H 9.92813191 12.38486906 13.78384783
H 13.43374270 8.77486937 10.89066590
H 12.98526085 10.03604783 10.11413132
H 12.93666124 10.03713028 14.54157215
H 12.02654559 8.78824989 14.54103350
H 9.04777922 10.85270976 16.79630862
H 8.15826947 12.11591188 16.77803118
H 9.09777535 10.84464636 12.28466478
H 9.55370377 12.10406673 11.51907277
H 9.95262679 12.36747759 9.26582554
H 11.28846029 12.37177127 10.04569629
H 11.30295844 8.44972535 10.06685593
H 10.41176610 7.18374023 10.04238744
H 14.25042034 7.18240407 12.34008844
H 13.80090189 8.44530440 13.11399056
H 15.16928332 8.45565066 16.69749217
H 13.81012802 8.47114102 15.96466894
H 14.25384581 13.66029641 16.83815634
H 13.77572664 12.40460879 17.61116889
H 9.50385845 8.73897712 17.58109340
H 8.14613625 8.73697804 16.84204986
H 0.41522477 8.71650028 12.34459684
H 1.76940703 8.71066938 13.09620102
H 5.69612641 12.15938517 10.85288651
H 5.69626195 12.14860817 9.30600093
H 6.53948601 13.70106325 12.32179253
H 7.43270786 12.43613664 12.32364046
H 5.63575757 12.14851225 13.74849387
H 4.28947804 12.14092941 14.51488216
H 3.58018904 8.42030320 14.51279510
H 2.68776173 7.14855518 14.50680960
H 2.12850905 12.39819447 15.30449120
H 2.14261249 12.38606973 13.76112388
H 5.63736180 8.79062195 9.28411877
H 5.20488047 10.05467767 10.05968136
H 5.66940661 8.77871969 15.36486969
H 5.22789442 10.03708691 14.57769973
H 0.36794464 12.07937287 16.77072466
H 1.26902838 10.82360342 16.70683043
H 1.78045748 12.08895231 11.50830320
H 1.33226615 10.82389737 12.27949526
H 2.63612608 13.67372435 10.07480844
H 3.54511668 12.42519355 10.07395502
H 3.51520833 8.49339077 10.11469331
H 2.17325523 8.47142821 10.89161662
H 6.03627801 8.48766180 13.08106272
H 6.00505403 8.49451993 11.53318794
H 6.45222436 7.18449767 16.84864856
H 5.99943989 8.44111052 17.63454628
H 6.48823742 13.69020695 16.76251869
H 6.03177433 12.43659351 15.97994212
H 1.81286627 8.70534632 15.90508907
H 1.81187730 8.74066028 17.44516066
