381

O 9.07289481 1.75671342 12.28191789
O 12.98186613 4.51732222 10.07402084
O 14.26717134 5.40903106 12.32845580
O 12.98604050 4.51354914 14.57836833
O 10.36040234 0.84524553 14.52120653
O 10.39943180 5.43370958 14.52595359
O 12.98027358 1.77264144 10.06968171
O 12.93962658 1.77628947 14.54764197
O 9.09593581 4.51421512 16.75497688
O 9.08834082 4.49719370 12.30512460
O 10.39915012 5.41900489 10.08269906
O 10.38874459 0.85959285 10.04967076
O 14.25504158 0.85212090 12.32573504
O 14.22760809 0.88692013 16.79901423
O 14.26144577 5.40691971 16.83443618
O 9.11369602 1.77378214 16.77427631
O 9.10818444 9.02575941 3.37167367
O 12.93419484 11.81047024 1.09575639
O 14.23836736 12.73130676 3.32991677
O 12.96959470 11.81313205 5.56142491
O 10.39449112 8.13194122 5.60975352
O 10.37602993 12.74027639 5.55303015
O 12.97975866 9.07404692 1.11216840
O 12.97338838 9.06677670 5.58308787
O 9.13699238 11.80917998 7.83389534
O 9.00465834 11.68854404 3.34487702
O 10.35846232 12.69072219 1.11271686
O 10.39048248 8.16084286 1.08217148
O 14.28648800 8.16883501 3.34391081
O 14.25679626 8.15821326 7.83842266
O 14.26374401 12.71885625 7.80573266
O 9.07419982 9.06721699 7.83631552
O 1.33258559 9.06730202 3.34609400
O 5.26377689 11.86150658 0.99466801
O 5.16434269 11.85934589 5.57131367
O 2.61810790 8.13878468 5.58897009
O 2.62172689 12.73577683 5.55733820
O 5.23842646 9.04906894 1.07751366
O 5.22761505 9.03081771 5.54919423
O 1.32921388 11.80206111 7.78454699
O 1.30542317 11.81028958 3.32031944
O 2.61085383 12.75450457 1.09009714
O 2.64314810 8.17787930 1.11453257
O 6.54649507 8.14436368 3.34407215
O 6.49367786 8.12259851 7.83706827
O 6.53603817 12.71879909 7.85794817
O 1.31775970 9.05829883 7.83692054
O 1.32441314 1.74595228 3.31483204
O 5.20289767 4.56243662 1.09799274
O 6.50322378 5.39900170 3.36321508
O 5.21798121 4.47656115 5.59379360
O 2.60561960 0.85237450 5.58265083
O 2.62108032 5.38282758 5.58657678
O 5.21092126 1.83523629 1.08224532
O 5.18592535 1.72307087 5.61946390
O 1.33942044 4.49571918 7.84542117
O 1.33255574 4.48586327 3.34020517
O 2.60547347 5.43360115 1.10340871
O 2.61403512 0.86600088 1.05280825
O 6.36545567 0.79817419 3.40679164
O 6.49663053 0.87435562 7.85360901
O 6.52298976 5.38426649 7.81041082
O 1.31989069 1.75589612 7.83545625
O 9.03061739 1.71442223 3.29317330
O 12.95700035 4.48806283 1.13217297
O 14.29236201 5.42117432 3.34262295
O 13.01354262 4.51194949 5.58778670
O 10.36826271 0.87165396 5.54613072
O 10.42033659 5.38945300 5.58098680
O 12.91348506 1.74723416 1.10305777
O 12.95106726 1.77315988 5.58286244
O 9.12428255 4.51483094 7.83152647
O 9.10665019 4.47658422 3.33831667
O 10.36197523 5.40689217 1.07449263
O 10.32286094 0.82203846 1.07752448
O 14.24584306 0.86945638 3.33221497
O 14.25319272 0.86145501 7.82044537
O 14.29294799 5.41980194 7.83830004
O 9.08937544 1.77780174 7.81275930
O 1.31544834 1.74360462 12.31534578
O 5.21572244 4.49034257 10.05662338
O 6.50876379 5.42470320 12.29891055
O 5.20375636 4.50456323 14.53494271
O 2.62738776 0.84837391 14.54687878
O 2.60428571 5.40850800 14.55668586
O 5.18533931 1.74799878 10.09506417
O 5.21216762 1.76215793 14.56164457
O 1.31440697 4.50761911 16.80405920
O 1.31704135 4.48811160 12.31013512
O 2.63048161 5.42265965 10.08153099
O 2.60029404 0.80681267 10.07997344
O 6.48333783 0.84363307 12.32769173
O 6.51470376 0.89607907 16.80042069
O 6.50220744 5.42080937 16.77273367
O 1.29883538 1.76610819 16.76470357
O 9.06276105 9.07564364 12.29487880
O 12.99501046 11.79440955 10.06103988
O 14.28166547 12.70234182 12.31523987
O 12.97815963 11.80334667 14.55228839
O 10.39711837 8.16428486 14.50204703
O 10.38235275 12.70950316 14.54403744
O 12.95623844 9.05207543 10.07011160
O 12.99629271 9.05240939 14.54394355
O 9.08108681 11.81061742 16.77750568
O 9.07612509 11.81768094 12.29510135
O 10.41024664 12.72235426 10.08030823
O 10.36681624 8.15933224 10.08184581
O 14.26765231 8.14140540 12.29934332
O 14.24663477 8.14711377 16.81194366
O 14.22213082 12.73536963 16.81121128
O 9.11566542 9.06969196 16.75164503
O 1.32118389 9.05990583 12.32863712
O 5.21560774 11.78837461 10.04951904
O 6.49130968 12.70692556 12.30565170
O 5.20205279 11.82262315 14.54792031
O 2.59223584 8.15947938 14.58365815
O 2.60392937 12.71860766 14.56655544
O 5.19338534 9.06077943 10.06373532
O 5.18772484 9.08104633 14.52353120
O 1.29178209 11.81546851 16.79732550
O 1.33242891 11.79475115 12.30706736
O 2.61774373 12.66570002 10.04700929
O 2.61065011 8.16264492 10.07548771
O 6.48651547 8.16668496 12.29435721
O 6.52280146 8.14738715 16.73964076
O 6.52086159 12.73684531 16.75575077
O 1.30322495 9.06811613 16.83218074
H 9.53430382 1.46528447 11.48860120
H 9.08887061 2.71971385 12.27359570
H 12.07578654 4.84389834 10.09819841
H 13.41339598 4.84037943 10.87205945
H 15.17061146 5.07540531 12.34003545
H 13.84009798 5.08638711 13.12928131
H 12.97723529 3.55047135 14.59015931
H 13.43432452 4.79912349 15.38140133
H 9.90082517 1.13695552 13.72652197
H 10.35421091 14.48400946 14.51230647
H 11.31368910 5.13152366 14.54112518
H 10.42459224 6.39690784 14.51327556
H 13.42681078 1.46800567 10.86673857
H 12.99145419 2.73536463 10.09509722
H 13.38269345 1.44151496 13.76050425
H 12.03618184 1.44378090 14.51969482
H 8.18823192 4.83549501 16.73516225
H 9.53198340 4.85310582 15.96554837
H 9.53021350 4.82869205 13.09393435
H 8.18570681 4.83309580 12.32605490
H 10.37334075 6.38176885 10.10427670
H 9.92856109 5.11239559 10.86550557
H 9.95810572 1.18372335 9.25188806
H 11.29288683 1.19081100 10.03490313
H 14.28189277 14.49165351 12.32145139
H 15.17115400 1.15008318 12.32636846
H 15.13545727 1.20708999 16.77046246
H 13.79297626 1.21274661 16.00364722
H 15.16892107 5.08404772 16.84917107
H 13.82988351 5.07489109 17.62812998
H 9.55074208 1.46697259 15.97211040
H 9.12871056 2.73671101 16.74893449
H 8.20313748 8.68697562 3.38338824
H 9.54309017 8.69322887 4.16561621
H 13.38893459 12.11833190 0.30344256
H 12.97150424 10.84765047 1.08173034
H 14.23330449 13.69428908 3.31237575
H 13.78174715 12.43541707 2.53572176
H 13.40530744 12.14675974 4.76865423
H 12.06692475 12.14340718 5.53654871
H 10.42518649 7.16932426 5.60542021
H 11.30771137 8.43854200 5.59922625
H 9.88919409 12.42305442 4.79125257
H 10.35926647 13.70350562 5.52105631
H 13.43796194 8.73711439 0.33436535
H 13.45979854 8.74758932 1.88108234
H 12.98185757 10.02932982 5.55986584
H 13.43987320 8.76828242 4.79503196
H 9.59573063 12.14985764 7.06095798
H 9.60816034 12.13490802 8.60832197
H 8.08149960 11.89182400 3.32860883
H 9.05166960 10.71804668 3.36299343
H 11.26678785 12.36469247 1.12515588
H 9.92119611 12.33550721 1.88793945
H 11.29701897 8.48507365 1.11181666
H 9.96014304 8.47108935 1.88408799
H 14.30763522 7.20619217 3.34275905
H 15.20439195 8.46365651 3.34446087
H 13.78012021 8.48406959 8.60982283
H 13.78937533 8.48557914 7.06317811
H 14.24763530 13.68154587 7.79287698
H 13.80665749 12.42225470 7.01211976
H 9.53944330 8.75430539 7.05412071
H 9.10415231 10.02934466 7.81015040
H 1.81568266 8.75064819 2.57493453
H 1.80093350 8.74035642 4.12140493
H 4.35275945 12.14993484 1.05945053
H 5.24576816 10.90633667 1.05665741
H 5.21056698 10.90373806 5.54898198
H 5.64334893 12.13110791 6.35469271
H 2.16208296 8.44019859 6.38128053
H 2.60390978 7.17702313 5.60923714
H 2.19208322 12.40120677 4.76441854
H 3.53466609 12.41080421 5.54255892
H 5.70597836 8.73112214 0.30029988
H 5.71635418 8.72585799 1.84613974
H 5.64855298 8.71371001 6.35344855
H 4.31801807 8.71960525 5.57736103
H 1.76661276 12.13463054 6.99215828
H 0.42926467 12.14242499 7.77064053
H 1.28917940 10.84791036 3.33225998
H 0.39068189 12.10670176 3.32662885
H 2.14360068 12.41507960 0.32112751
H 2.14917493 12.41441650 1.86300615
H 2.65751392 7.21557380 1.10757048
H 3.56141928 8.47068112 1.09602498
H 6.06962678 8.45273177 4.12485539
H 6.51529103 7.18273545 3.36928833
H 7.39063473 8.47117147 7.85486190
H 6.05157765 8.45718915 8.62441783
H 6.55280800 13.68001294 7.85726145
H 7.45122710 12.42409222 7.84698518
H 1.30259417 10.02111515 7.81085625
H 0.40000322 8.76730419 7.83382139
H 0.41586838 1.42896071 3.29496208
H 1.75371793 1.42460585 2.51494182
H 4.29461265 4.88279192 1.12152748
H 5.63617963 4.88180907 1.89643197
H 6.07111238 5.06122474 4.15552882
H 7.40678390 5.06914333 3.37631656
H 5.68099769 4.77991399 6.38325376
H 5.21493407 3.51524927 5.62544609
H 2.16004538 1.14721355 4.78199294
H 2.59865379 14.48899840 5.55999788
H 3.52863547 5.06323914 5.61126503
H 2.19128253 5.05984674 6.38570347
H 5.20957321 2.79946593 1.10564050
H 5.61881098 1.53790767 1.89663724
H 5.61949483 1.40539373 6.42068951
H 4.27366052 1.40845065 5.64148155
H 1.77467235 4.83311417 8.63566208
H 0.43654068 4.83083215 7.86174816
H 1.78851031 4.78239561 4.13528402
H 1.34511805 3.52298833 3.35502640
H 2.14238550 5.10026917 0.32771977
H 2.13946615 5.09418266 1.87477344
H 2.64600358 14.50325462 1.06440343
H 3.52247341 1.17909887 1.05296511
H 6.18097938 14.47323935 3.38490571
H 5.94445230 1.12724020 4.21775869
H 7.39658338 1.21609780 7.86433379
H 6.06375883 1.18794775 8.65502988
H 7.44417724 5.10393377 7.81783495
H 6.52869547 6.34812675 7.82148667
H 1.34011924 2.71876580 7.82510381
H 1.76909542 1.46025112 7.03688147
H 8.13687766 1.37060342 3.30090158
H 9.45549724 1.38194512 2.49303235
H 12.91654369 3.52602803 1.12423831
H 12.04659643 4.80029963 1.11084905
H 15.19263803 5.07969824 3.31507256
H 13.84084684 5.08461959 2.56160060
H 13.47731625 4.84417289 6.36402316
H 13.48757871 4.83938370 4.81559417
H 11.27319333 1.20366131 5.53314423
H 9.93507213 1.19424041 4.75041744
H 11.32772682 5.06629146 5.55849276
H 9.98437874 5.05554327 4.79062052
H 12.01435134 1.40556042 1.07423293
H 13.35698434 1.43619420 0.30622932
H 12.98654477 2.73562686 5.60628793
H 13.40851130 1.46437070 6.37270744
H 9.58991938 4.84203792 8.60881489
H 9.60070136 4.83825985 7.05977437
H 9.09156713 3.51648751 3.29619372
H 9.54105357 4.78407343 2.53551110
H 10.36279309 6.36946865 1.05926935
H 9.91506032 5.11854877 0.27140798
H 10.32040553 14.46150030 1.05892135
H 9.89339876 1.12699593 0.26971422
H 13.78659413 1.19733364 4.11227955
H 13.76077405 1.19424121 2.56653887
H 15.16006375 1.18507111 7.84095541
H 13.82588716 1.18646299 8.62030156
H 13.82541490 5.11788826 8.62446788
H 14.27100526 6.38281091 7.85795220
H 9.11513497 2.74091214 7.79944625
H 9.53254908 1.47878313 7.01271504
H 1.77633906 1.39918714 11.54288015
H 1.79504125 1.42509754 13.08777641
H 5.20844565 3.52737299 10.05376496
H 5.67863102 4.76970372 9.26014637
H 6.48691830 6.38739597 12.27322199
H 6.05501102 5.11522840 11.50804392
H 5.66945991 4.83869642 15.30877456
H 5.67464447 4.83548320 13.76293867
H 2.64332665 14.48702758 14.55285354
H 3.54352219 1.14500630 14.55524610
H 3.51099292 5.08588479 14.52861260
H 2.16938047 5.07963272 13.76293421
H 4.28529289 1.40584564 10.10347630
H 5.61662851 1.42013716 10.89176732
H 5.21595569 2.72532351 14.56885714
H 5.67319612 1.47772111 15.35843752
H 1.32477222 3.54496213 16.77053646
H 1.76908876 4.81269581 16.01144153
H 1.32930469 3.52545746 12.28411707
H 1.77875588 4.79500568 11.52281947
H 2.64847848 6.38575935 10.08307286
H 3.54597080 5.12498660 10.07250003
H 2.14959840 1.11681260 9.28767619
H 2.59092007 14.44621770 10.04662715
H 7.38791326 1.17333549 12.33018701
H 6.06130888 1.17911939 13.12648939
H 6.08636374 1.23445792 17.59259778
H 7.42176304 1.21805845 16.81182592
H 6.04554754 5.13805695 17.57138865
H 6.49669360 6.38474315 16.77910868
H 1.77241990 1.43311331 15.99463342
H 1.77128674 1.43754633 17.53716127
H 9.04215741 10.03861808 12.29499634
H 8.14649047 8.77632669 12.29785782
H 12.09460658 12.13568142 10.05404815
H 13.42175192 12.12192223 9.26230641
H 15.18784682 12.37538921 12.29528464
H 13.85356197 12.37732220 11.51649240
H 12.99972015 10.84084021 14.53443773
H 13.43798661 12.10199979 13.76004495
H 9.93747097 8.49353319 15.28162016
H 9.91456186 8.49374549 13.73612458
H 11.28630372 12.37801415 14.55943633
H 9.94992550 12.38179466 15.33991163
H 12.94523713 10.01516800 10.07139522
H 12.03729486 8.76280777 10.07589710
H 13.43283025 8.72356433 13.75028540
H 12.08694663 8.73827771 14.50586422
H 8.17573169 12.14578990 16.78608628
H 9.50371110 12.13174655 17.57887716
H 9.51108601 12.13355309 13.09378677
H 8.17086438 12.14778548 12.31988518
H 10.38820074 13.68493038 10.09593722
H 9.93691619 12.42096498 10.86344750
H 9.89658132 8.48290172 9.30624757
H 9.89149336 8.49179356 10.85156090
H 14.25927329 7.17828483 12.28269476
H 13.80833509 8.43984498 11.50723809
H 13.80451284 8.44521700 16.00966915
H 14.23524428 7.18434295 16.79452135
H 14.21755895 13.69782316 16.78944518
H 13.78261065 12.43700949 16.00770964
H 9.56023486 8.77091820 17.55092466
H 9.11224989 10.03241597 16.78183950
H 1.74939201 8.73346986 13.12733419
H 0.41706483 8.72915725 12.34157202
H 5.69735901 12.12320893 9.28412308
H 5.67191678 12.11914118 10.83000973
H 6.03041047 12.40595408 13.09677688
H 6.47381703 13.66960665 12.32914217
H 5.64696458 12.15318205 15.33736214
H 4.29685097 12.14847536 14.58087981
H 2.13904417 8.45278423 15.38111470
H 2.58873167 7.19695826 14.59805114
H 2.14514906 12.38594468 13.78827704
H 2.12479215 12.39051359 15.33526519
H 4.27527755 8.76917681 10.06330651
H 5.17916098 10.02447998 10.05155920
H 4.27327420 8.78156773 14.55058113
H 5.16653093 10.04412067 14.53530303
H 1.27095445 10.85306038 16.81242554
H 0.37771006 12.11513494 16.80562671
H 1.79131359 12.08189964 11.51039910
H 1.34144350 10.83153036 12.29836480
H 3.52750475 12.35038663 10.02140112
H 2.18669716 12.34411900 9.24796647
H 2.13543543 8.49111688 9.30426243
H 2.14345841 8.48609982 10.85275333
H 6.00852669 8.49329075 13.06446675
H 6.01554375 8.49338659 11.51928436
H 7.42499667 8.48070289 16.71316171
H 6.07352303 8.48659001 15.95857408
H 6.05625789 12.42943418 17.55063200
H 6.50800368 13.69760310 16.78407862
H 1.74806659 8.75351061 17.62627374
H 0.40270063 8.72923909 16.85767656
