381

O 9.07614555 1.74770048 12.31607919
O 12.97702417 4.50120473 10.07650103
O 14.28048560 5.41093448 12.30071878
O 12.97456675 4.48722876 14.54356514
O 10.37766508 0.85116268 14.55542568
O 10.38682927 5.41066062 14.57828305
O 12.95562973 1.75908869 10.08261744
O 12.96196885 1.75338578 14.54240480
O 9.05995353 4.50127032 16.80461624
O 9.11641685 4.48594513 12.32652623
O 10.38570450 5.40443584 10.08477636
O 10.37175410 0.85319463 10.07088443
O 14.26342318 0.84867655 12.30822786
O 14.26065425 0.86171876 16.79566053
O 14.24775896 5.40461792 16.77971195
O 9.09654250 1.75077909 16.81701443
O 9.03437635 9.06598460 3.34567884
O 13.00379465 11.79741643 1.09142798
O 14.29031958 12.69589142 3.35083677
O 12.98053645 11.78321366 5.57604043
O 10.37171032 8.16799826 5.55791149
O 10.41083537 12.71911967 5.58028727
O 12.95741801 9.05935941 1.10006814
O 12.95737818 9.03878772 5.55636241
O 9.09559545 11.80626849 7.80696038
O 9.10154014 11.81293611 3.33341950
O 10.40998016 12.70673522 1.09000885
O 10.36327913 8.17800066 1.11052808
O 14.29205224 8.14979696 3.30360467
O 14.24853780 8.18422751 7.81612618
O 14.27496129 12.68860414 7.81621660
O 9.09225043 9.06300828 7.82408791
O 1.45630747 8.98995823 3.35612748
O 5.21523616 11.85671637 1.08934049
O 6.51771576 12.74021954 3.35456025
O 5.22747985 11.79034644 5.57505051
O 2.61297489 8.13804185 5.60924659
O 2.65873159 12.70717158 5.57685913
O 5.20529546 9.06213965 1.15585224
O 5.22584323 9.05192333 5.56274582
O 1.34186309 11.81145269 7.80654749
O 1.32998781 11.78744758 3.34068572
O 2.60686074 12.74648079 1.09935917
O 6.46203087 8.14403087 3.33072500
O 6.50167338 8.15603668 7.81255555
O 6.50385555 12.70547214 7.82673830
O 1.29305454 9.07818162 7.80366502
O 1.30637429 1.74641447 3.34630448
O 5.18766469 4.53653489 1.09115766
O 6.50901380 5.38940486 3.34609875
O 5.20609780 4.53020122 5.60801854
O 2.61349359 0.84891436 5.59116509
O 2.60321759 5.41806049 5.60647365
O 5.17537036 1.76663997 1.08455925
O 5.19331647 1.79076146 5.58813866
O 1.30873010 4.49292108 7.83980199
O 1.31792432 4.50359874 3.37355733
O 2.52611331 5.43900262 1.00021017
O 2.56759298 0.87568210 1.07278571
O 6.47883392 0.88269541 3.33573909
O 6.49752502 0.84770976 7.81691600
O 6.50112562 5.42101909 7.85086045
O 1.27335495 1.75355226 7.81253316
O 9.07735975 1.75880206 3.35003773
O 12.96330101 4.50857631 1.08579071
O 14.24022609 5.38908188 3.33325200
O 12.98836253 4.49108427 5.59255622
O 10.36119139 0.85799223 5.59557429
O 10.40613261 5.42557126 5.59213956
O 12.99095528 1.76625197 1.11546076
O 12.95421559 1.74847304 5.59435650
O 9.09246037 4.52480357 7.83031801
O 9.12054523 4.49421539 3.35095994
O 10.38909384 5.42791009 1.08159782
O 10.40569435 0.84078506 1.12462261
O 14.25280953 0.83226201 3.36139611
O 14.22392092 0.82486091 7.83440311
O 14.26252071 5.43038640 7.83055699
O 9.07286351 1.78105347 7.83860834
O 1.30595164 1.77132389 12.30924222
O 5.22120996 4.48037123 10.08884878
O 6.53252834 5.42795836 12.30384054
O 5.22392110 4.52597792 14.55279762
O 2.61069390 0.85892325 14.53847094
O 2.64495561 5.42434984 14.50973153
O 5.17300786 1.74310856 10.04830395
O 5.18935768 1.78014954 14.55807121
O 1.29320308 4.52754095 16.74491055
O 1.33417618 4.51462967 12.30037270
O 2.64096162 5.41022749 10.05371982
O 2.57969904 0.85812280 10.05251619
O 6.47200339 0.88063297 12.29931726
O 6.49844170 0.85040392 16.78433238
O 6.47849882 5.42720240 16.80271368
O 1.28533286 1.79721164 16.76187244
O 9.08214625 9.07116961 12.32711778
O 12.97311260 11.79061155 10.05092648
O 14.24307556 12.71473231 12.30462048
O 12.97916082 11.78482665 14.55832178
O 10.40430303 8.15253628 14.55403743
O 10.38976835 12.71095816 14.54513021
O 12.94246109 9.05488593 10.06063545
O 12.99567497 9.04490536 14.58151822
O 9.10216959 11.81151428 16.79870557
O 9.09364637 11.81873504 12.30132323
O 10.39271180 12.71315604 10.04941984
O 10.36384560 8.14488936 10.08124302
O 14.26644637 8.16184095 12.30014682
O 14.28750420 8.11496303 16.84177038
O 14.29725133 12.72148876 16.79862079
O 9.08509755 9.07094001 16.79792275
O 1.31521703 9.09061198 12.25240787
O 5.20668762 11.79443183 10.06549892
O 6.51925896 12.74669704 12.28719964
O 5.21837147 11.83261432 14.53041886
O 2.63409177 8.18085462 14.47448406
O 2.61911623 12.70627506 14.55208882
O 5.20673372 9.04770290 10.04798150
O 5.19095615 9.09381380 14.52839691
O 1.37092344 11.76407518 16.82346681
O 1.31105191 11.83758998 12.29830317
O 2.61866620 12.71781437 10.05855613
O 2.60900063 8.15315258 10.01535763
O 6.49010053 8.17135682 12.30263457
O 6.48349485 8.15017696 16.77716732
O 6.50771863 12.70391937 16.77896865
O 1.31476592 8.93567638 16.81700202
H 8.16484113 1.43784135 12.28729773
H 9.51112854 1.41731136 11.52262391
H 13.43709058 4.83559119 9.29965437
H 13.45315370 4.83566712 10.84454634
H 15.19864914 5.11873071 12.30453918
H 14.29758257 6.37351401 12.30439900
H 13.42790939 4.79098367 13.75052402
H 12.98143275 3.52389336 14.51729171
H 10.37083048 14.49053100 14.53178749
H 9.91021696 1.14741622 13.76691234
H 9.94475878 5.08215564 15.36857095
H 11.28918949 5.07562083 14.59649131
H 12.97316012 2.72215051 10.09295182
H 13.42073168 1.46482583 10.87320649
H 13.39841991 1.41655684 13.75257168
H 12.05489375 1.42914287 14.52008868
H 9.04070143 3.53884606 16.81172254
H 8.14428099 4.80240487 16.80532616
H 9.11465136 3.52290833 12.34923076
H 9.56316353 4.78416774 13.12577263
H 9.95611421 5.06287439 10.87676094
H 11.29232088 5.07987416 10.10102834
H 11.28575442 1.15760364 10.07908320
H 10.40187966 14.49271004 10.05756123
H 14.28134837 14.48787631 12.30252446
H 15.17892015 1.14860729 12.31185796
H 13.81503858 1.17980973 16.00344259
H 15.15899074 1.21085949 16.76279105
H 15.15714211 5.08274857 16.75224945
H 13.81360129 5.07270050 15.98575827
H 9.56406397 1.42412065 16.04136445
H 9.57041041 1.42570821 17.58892355
H 9.02001808 10.02843775 3.34245614
H 8.11720942 8.76704084 3.33666799
H 13.47539249 12.13409918 0.32226578
H 13.46908765 12.12215445 1.86930944
H 14.27168282 13.65937216 3.37095611
H 13.81943239 12.39535504 4.13594251
H 12.94409542 10.82127081 5.56366509
H 12.06882754 12.09652539 5.58022320
H 9.91357326 8.49006946 6.34140727
H 9.87934547 8.49062856 4.79444916
H 10.38788506 13.68185745 5.60409764
H 9.93970866 12.41407851 6.36310551
H 12.03773133 8.76971149 1.11128295
H 12.94504862 10.02279409 1.08760409
H 13.40352733 8.71287152 4.76981438
H 12.04988721 8.71495246 5.52383311
H 9.07311901 10.84336055 7.81271922
H 8.17900109 12.10214947 7.81681730
H 9.57818406 12.12696586 2.55799163
H 9.57864430 12.13769496 4.10381392
H 10.43156284 13.66991326 1.10434408
H 11.32552908 12.41025372 1.09137624
H 9.89496574 8.50519450 0.33451353
H 9.87692246 8.49192648 1.88059712
H 15.20259026 8.44410771 3.27164030
H 13.85134332 8.49174474 2.51709496
H 13.76889209 8.49828067 8.59016705
H 13.77229438 8.50072168 7.04151599
H 15.18701680 12.38117655 7.78753476
H 13.84053250 12.35635669 7.02330069
H 9.52065327 8.73131420 8.62010188
H 8.18823892 8.73078341 7.83946890
H 1.86103628 8.68519424 4.18483024
H 2.01747528 8.65716334 2.67170878
H 4.31181063 12.18399779 1.11657678
H 5.65060468 12.17679530 1.88493850
H 7.43459426 12.44675266 3.34168317
H 6.53106707 13.70305395 3.35581953
H 5.69007503 12.10292987 4.78936209
H 5.24298620 10.82756892 5.54475280
H 2.14749651 8.45236515 6.39309734
H 2.59745434 7.17333849 5.63949204
H 3.56115565 12.36854395 5.55099559
H 2.21641972 12.38077298 4.78783889
H 5.61772860 8.75621070 0.34756814
H 5.21017160 10.01877390 1.11329448
H 5.64398361 8.71278551 4.76028678
H 4.32198107 8.72616890 5.56268859
H 1.82352135 12.13810357 7.03907484
H 1.80109845 12.14092182 8.58674932
H 0.40969433 12.07606023 3.35065206
H 1.33013743 10.82929135 3.33645261
H 2.57691193 13.71023498 1.10504564
H 2.15487812 12.44725644 1.89373313
H 6.46728450 7.18239026 3.30603427
H 6.00258176 8.44840641 2.53232472
H 6.05771673 8.44873936 7.00908086
H 6.48947213 7.19284814 7.80350846
H 6.03194039 12.37737305 8.59954685
H 6.03802598 12.37197035 7.05255333
H 1.28908521 10.04180293 7.80350760
H 0.37259335 8.79252539 7.80898723
H 1.75244916 1.41807726 4.13371358
H 0.40308874 1.41515922 3.37929947
H 5.18328377 3.57550716 1.10244886
H 5.64929069 4.81679031 1.88722512
H 7.41468913 5.06716100 3.36962598
H 6.07568699 5.07293608 4.14477064
H 4.30124166 4.85822079 5.62238071
H 5.63724393 4.86113857 6.40288376
H 2.66223971 14.48959731 5.58526788
H 3.52127814 1.17132732 5.59223556
H 2.13406859 5.07180298 6.37310114
H 2.13968358 5.08840552 4.82730341
H 4.26859411 1.44656874 1.05373143
H 5.61687678 1.43387856 0.29711475
H 5.20442301 2.75358552 5.61959961
H 5.65683954 1.48207612 6.37357887
H 1.27323986 3.53032962 7.83275743
H 0.39735188 4.80393641 7.83927507
H 0.40014167 4.78961235 3.36281142
H 1.30204210 3.54191601 3.36006057
H 2.12697765 5.12636198 1.81226990
H 3.44644054 5.17635310 1.04406845
H 2.09951885 1.21807731 0.30446490
H 2.11050364 1.20628131 1.85361328
H 6.01173711 1.21806097 4.10802201
H 6.00236886 1.19724938 2.55996773
H 6.52612738 14.48731097 7.81265785
H 7.41021409 1.15533440 7.82930278
H 7.40856732 5.09835970 7.85910487
H 6.07404035 5.07916659 8.64354615
H 1.72120705 1.42398648 7.02613789
H 0.37322101 1.41255333 7.78964962
H 9.06953448 2.72212655 3.34630342
H 8.15707498 1.47449680 3.33526108
H 12.05820742 4.83867359 1.05973352
H 13.39885154 4.82970268 0.28915346
H 13.78943817 5.09575125 2.53360760
H 14.24296155 6.34982240 3.30837681
H 13.43526448 4.77699272 4.78862574
H 12.98700973 3.52789757 5.58335529
H 9.89392467 1.19615165 6.36666164
H 9.88870451 1.18044609 4.82015822
H 11.32114623 5.12558278 5.59561442
H 10.42286775 6.38814611 5.57983736
H 12.99307221 2.72887796 1.08484767
H 13.43696943 1.46477831 0.31669758
H 13.38295606 1.41016160 6.38806808
H 12.04548826 1.42946863 5.61274542
H 9.56363842 4.85252920 7.05691488
H 9.56350760 4.85316291 8.60351123
H 9.59169577 4.83117163 4.12003303
H 9.57625863 4.83105910 2.57332527
H 10.36273335 6.39024231 1.06775303
H 9.90956856 5.12407130 0.30345630
H 11.30524185 1.18308949 1.14857526
H 9.95863102 1.16878523 1.91207806
H 13.77782087 1.16547847 4.13030003
H 13.79804026 1.17177540 2.58295941
H 14.22207003 14.46425475 7.85794334
H 13.77928000 1.12908092 8.63276677
H 14.24668207 6.39237781 7.80606902
H 13.81064984 5.12375438 7.03688336
H 9.53725852 1.48068587 8.62711249
H 9.08848460 2.74387864 7.85555545
H 1.77455206 1.46955419 13.09503289
H 1.32227940 2.73421412 12.32860767
H 4.31046253 4.79385212 10.07652049
H 5.18094387 3.51811151 10.07530474
H 6.08907203 5.07785223 11.52375340
H 7.43440424 5.09189454 12.28581754
H 5.68100412 4.85912371 15.33407692
H 5.70669672 4.84764781 13.78462920
H 3.52631725 1.15878797 14.55033354
H 2.63281829 14.49891904 14.54548174
H 2.67268027 6.38533213 14.49384932
H 3.56045422 5.12270986 14.52846388
H 5.61841486 1.41512973 9.25973460
H 4.26769890 1.41589626 10.01920458
H 5.20833808 2.74287684 14.58102281
H 5.65845064 1.47454152 15.34205752
H 1.75610405 4.85183608 17.53326046
H 1.77730296 4.85817345 15.98311944
H 1.80478854 4.83473452 11.52367906
H 1.81493200 4.84310272 13.06876737
H 2.62141306 6.37249863 10.02163020
H 2.17141666 5.09955497 9.27217049
H 2.12263980 1.19447537 10.83065028
H 2.09880935 1.18125242 9.28313467
H 5.99435317 1.20388867 11.52791008
H 6.00819879 1.20873684 13.07694371
H 6.52192798 14.48966108 16.78128161
H 7.41473769 1.14509596 16.80140091
H 6.47054820 6.39134333 16.81573285
H 6.01410667 5.13475348 17.59586280
H 1.75574073 1.48754188 15.98137023
H 1.30559056 2.76113422 16.73520294
H 8.16386751 8.78062678 12.32068509
H 9.06637757 10.03405128 12.31924852
H 13.44172863 12.08161891 9.26125650
H 12.97462334 10.82746992 10.03540520
H 13.78215372 12.37978357 11.52812724
H 13.77861345 12.37575252 13.07690104
H 12.99697066 10.82252222 14.59408861
H 13.43713261 12.09934230 15.34382970
H 10.38226561 7.18978766 14.53964450
H 9.93872557 8.45476078 13.76713291
H 9.95155153 12.38318853 13.75225978
H 11.29100110 12.37390596 14.52655339
H 12.03836529 8.72225570 10.08880042
H 13.38525689 8.72805066 10.85064829
H 13.42135970 8.70555338 15.37392626
H 12.08828558 8.71983689 14.59124997
H 9.56506309 12.14274436 16.02228305
H 9.57823431 12.14054634 17.56856322
H 9.52979005 12.13965608 11.50511029
H 8.19399273 12.16322989 12.28041001
H 9.95763020 12.38454378 9.25556325
H 11.29602779 12.37954934 10.02852659
H 10.35682352 7.18188397 10.10711352
H 9.90839826 8.44898661 10.87350334
H 15.16662678 8.50416733 12.30164369
H 13.84556761 8.48304850 13.10372157
H 13.80974621 8.41794102 17.62191838
H 14.24890890 7.14993195 16.84020969
H 15.21079379 12.42340700 16.79634154
H 14.31435647 13.68526935 16.79199808
H 9.10306798 10.03357363 16.77717794
H 9.55034403 8.76908757 16.01168018
H 1.78813536 8.78816014 13.03471819
H 1.32817511 10.05311357 12.28064681
H 4.29101222 12.09221024 10.06743097
H 5.18691866 10.83150761 10.06455734
H 6.48721973 13.70942463 12.26710811
H 6.05326994 12.43432677 11.50458051
H 5.68678267 12.17128016 13.76038802
H 5.69153802 12.14762966 15.30903335
H 2.18642793 8.47746344 15.26786574
H 3.53579959 8.52423723 14.51506939
H 2.20564097 12.36350877 15.34979658
H 3.52834738 12.38711534 14.55420224
H 5.64617343 8.72882406 9.25169448
H 4.30221897 8.71955159 10.01480077
H 5.65167208 8.78504629 13.74059186
H 5.21956179 10.05637825 14.50769714
H 1.81719565 12.08771668 17.61555236
H 1.38212018 10.80828101 16.86993039
H 1.74570065 12.15890534 13.09515191
H 0.40272192 12.15623933 12.32396740
H 2.60143008 13.68081859 10.07380017
H 2.15242152 12.42528199 10.84893832
H 2.14392021 8.48983282 10.78826608
H 2.13558272 8.48675254 9.24569588
H 6.49585520 7.20821188 12.28848026
H 6.03690599 8.45555779 11.50142355
H 7.38352998 8.48848257 16.76660477
H 6.05114269 8.49138411 15.98940335
H 7.41078846 12.37155650 16.81164830
H 6.06629235 12.39122404 17.57705427
H 0.39506752 8.62897682 16.83918145
H 1.77258924 8.44300039 17.48174517
