381

O 9.08367889 1.76651775 12.31805858
O 12.94196026 4.47642785 10.08678725
O 14.26435428 5.38498619 12.30001299
O 12.98035693 4.50740964 14.56587957
O 10.41349298 0.82233051 14.52029632
O 10.38474102 5.41279927 14.54763861
O 12.99082458 1.73956431 10.06385134
O 12.99903738 1.76219438 14.54242363
O 9.12012199 4.48183989 16.80549302
O 9.05668791 4.51147754 12.31155113
O 10.37478161 5.43345222 10.08508393
O 10.38897689 0.86978207 10.07368922
O 14.27252342 0.83133431 12.30217842
O 14.26194401 0.85061181 16.79773103
O 14.26817995 5.44088591 16.80604126
O 9.10996463 1.74505249 16.75266310
O 9.08568464 9.08444758 3.30913353
O 12.96628756 11.79532341 1.08713555
O 14.26178326 12.69019518 3.33372343
O 12.97832478 11.79279770 5.59985498
O 10.34779804 8.15883256 5.53971062
O 10.41160058 12.72491004 5.59331523
O 12.97794149 9.05034667 1.07594704
O 12.95919738 9.05895332 5.58636464
O 9.10146994 11.78458746 7.81318659
O 9.12501592 11.82308913 3.31807155
O 10.39827267 12.75576634 1.09327634
O 10.39355389 8.16172530 1.08233357
O 14.22350355 8.11694006 3.32465014
O 14.32596179 8.04034189 7.81288702
O 14.31533679 12.66602028 7.84369569
O 9.05436525 9.04083186 7.80254214
O 1.27221060 9.07838870 3.26631114
O 5.18845357 11.75917202 1.10637399
O 6.52293529 12.68856980 3.31441651
O 5.23668235 11.85913743 5.58876839
O 2.59878193 8.06635740 5.51021422
O 2.66432367 12.72967980 5.57312172
O 5.19878634 9.02892868 1.11113846
O 5.22085092 9.09022580 5.57696110
O 1.44417423 11.73741801 7.73914988
O 1.32201902 11.82658968 3.33901645
O 2.61873666 12.72921728 1.10492317
O 2.60233623 8.15895043 1.07685316
O 6.49529065 8.14652561 3.35951021
O 6.47404045 8.15597295 7.84376651
O 6.52642280 12.73195161 7.84537283
O 1.30158882 1.76564533 3.33651155
O 5.20853549 4.50014440 1.10428188
O 6.47967735 5.40689494 3.35301909
O 5.19057783 4.48868766 5.58675815
O 2.61395094 0.85010182 5.56262924
O 2.61002762 5.39269240 5.57273239
O 5.20559072 1.75619069 1.08467766
O 5.21701494 1.73423188 5.56640739
O 1.28018988 4.51762989 7.83698395
O 1.32965851 4.49444915 3.33483677
O 2.61451215 5.41871815 1.08444467
O 2.61396191 0.87200867 1.10081535
O 6.48926220 0.82106051 3.31592405
O 6.51096521 0.86512053 7.82628709
O 6.48531972 5.40763930 7.82095159
O 1.33416024 1.79134930 7.79210979
O 9.06473855 1.74179543 3.34173399
O 12.97952622 4.51705316 1.09636436
O 14.26790572 5.37624507 3.35725882
O 12.94170507 4.48455420 5.58485720
O 10.35214240 0.86584390 5.60136656
O 10.37702127 5.42251084 5.55544566
O 12.98505189 1.77975951 1.10211860
O 12.94533943 1.73503215 5.60624874
O 9.10021577 4.53514586 7.82327712
O 9.06454793 4.48817547 3.33737854
O 10.38103073 5.41846374 1.11007314
O 10.39086335 0.88900429 1.08210217
O 14.24434976 0.84291454 3.35372752
O 14.28727387 0.83010748 7.81270982
O 14.18007531 5.38416368 7.83521163
O 9.08211914 1.80154701 7.84221407
O 1.32593223 1.75456785 12.28883582
O 5.16542573 4.51734831 10.05536829
O 6.47143731 5.43261647 12.29512695
O 5.22901366 4.52368294 14.56531319
O 2.62174344 0.87858042 14.53947056
O 2.62855980 5.39572930 14.55537465
O 5.19712931 1.75761243 10.06054396
O 5.21518211 1.78395530 14.55796823
O 1.31165172 4.49759140 16.78691170
O 1.31008136 4.49526531 12.32934650
O 2.55872180 5.43454153 10.05494469
O 2.61373611 0.87107590 10.03335114
O 6.49045889 0.86693985 12.31340735
O 6.51422234 0.84362543 16.79556420
O 6.53152299 5.39932955 16.81439385
O 1.31622202 1.75186539 16.79279263
O 9.08846006 9.08871744 12.30720418
O 13.02004899 11.79804276 10.07769097
O 14.26780309 12.69301290 12.34190886
O 12.96967944 11.77479455 14.57195378
O 10.36047082 8.15473208 14.55413714
O 10.38716489 12.68309797 14.55806947
O 12.95771786 9.04948299 10.04518129
O 12.95919624 9.03956962 14.55086140
O 9.07857910 11.81993491 16.81492719
O 9.08858569 11.83138494 12.29618442
O 10.40793489 12.72271970 10.04011875
O 10.38040270 8.17267040 10.03329315
O 14.22474129 8.12408861 12.30888260
O 14.29735337 8.17866708 16.78376579
O 14.25815357 12.71493148 16.79333860
O 9.08746553 9.07609074 16.79993844
O 1.27854688 9.09679155 12.35763971
O 5.20522508 11.81202868 10.06730134
O 6.49846267 12.72899995 12.30896802
O 5.20386023 11.81940060 14.56751503
O 2.61539919 8.14206901 14.56263117
O 2.61588224 12.74193742 14.56041500
O 5.17958825 9.08395181 10.06261008
O 5.20227303 9.07652732 14.58095169
O 1.33127592 11.83889118 16.80373999
O 1.32164942 11.81292190 12.32699187
O 2.60416288 12.74498537 10.07128466
O 2.63035677 8.25673645 10.06354366
O 6.48161569 8.16644198 12.32956578
O 6.50636140 8.14289224 16.81116910
O 6.48482768 12.69977799 16.82890213
O 1.34449332 9.09265645 16.79212121
H 9.56255539 1.42665499 13.08149855
H 9.55033478 1.44469149 11.53973463
H 13.42172838 4.77579114 10.86762762
H 12.96891906 3.51339609 10.09879066
H 13.83316570 5.07102203 13.10181381
H 15.17370827 5.06572371 12.33049402
H 13.41041846 4.85002873 15.35651432
H 12.07500591 4.83518968 14.57638652
H 10.43693904 14.46176435 14.53136160
H 11.32652288 1.12747092 14.53067762
H 9.91575766 5.11420503 13.76147161
H 10.36248590 6.37557681 14.53169583
H 13.45694261 1.40601407 10.83853069
H 13.46321589 1.41446923 9.29083747
H 13.00039408 2.72507607 14.56636518
H 13.44485258 1.46597536 15.34322173
H 9.13256455 3.51952066 16.76497866
H 9.56292815 4.79615985 16.01022791
H 8.14088013 4.81002525 12.30285362
H 9.03745003 3.54886376 12.31641332
H 11.27200551 5.08527017 10.11650345
H 9.92183297 5.10155770 10.86785507
H 11.30728077 1.16014305 10.06806716
H 10.40780210 14.50947475 10.05502277
H 13.82523516 1.14919043 13.09425869
H 14.25350136 14.47130220 12.34110000
H 14.24051034 14.48970176 16.81596638
H 13.81128322 1.15450800 17.59254167
H 15.17831453 5.12529079 16.79706560
H 14.30881679 6.40332362 16.79969644
H 8.20493163 1.41609482 16.74366404
H 9.54185859 1.40518998 15.96208076
H 9.10508646 10.04711037 3.28661087
H 9.54259350 8.77861033 2.51831564
H 13.42892152 12.08690932 1.87972935
H 12.97493052 10.83221331 1.10237867
H 13.83432079 12.35795445 4.12904251
H 15.17436629 12.38178463 3.35661924
H 13.41517775 12.12177073 6.39095762
H 12.07687285 12.13535787 5.61534601
H 9.92507045 8.50025981 4.74302154
H 11.25137058 8.48700638 5.53756473
H 10.37777597 13.68704799 5.62058122
H 9.93998563 12.40901292 6.37163193
H 13.43289070 8.70302996 1.85070539
H 13.46068497 8.73776098 0.30310928
H 12.97812149 10.02235147 5.61388666
H 13.43037162 8.74807811 6.36039366
H 8.19061346 12.09774629 7.82692561
H 9.06194393 10.82208169 7.80573447
H 9.58646501 12.14690796 4.09768901
H 9.59549661 12.16967110 2.55150884
H 10.42842669 13.71883140 1.08389564
H 11.30957173 12.44438010 1.08271250
H 11.31330885 8.44899723 1.07785655
H 10.40410704 7.19877696 1.09270055
H 13.77220987 8.42098910 4.11715819
H 14.23174366 7.15434027 3.35856455
H 15.25342364 8.22347158 7.81016275
H 14.25658024 7.07107476 7.81671209
H 15.20555703 12.31392179 7.84170112
H 13.88832547 12.35193390 8.65002967
H 8.14718980 8.71326923 7.79892394
H 9.47478010 8.71862030 6.99912646
H 1.25008617 10.03911612 3.29376111
H 0.36146347 8.77113295 3.28633333
H 4.27735125 12.07052447 1.11279874
H 5.16012725 10.79588482 1.10971898
H 6.07686060 12.33547746 2.53717759
H 7.43164616 12.37108674 3.28858967
H 5.71779559 12.16048089 4.81081704
H 5.71048932 12.18483503 6.36140055
H 2.16643068 8.42869944 4.73659469
H 3.47951675 8.44059721 5.53330631
H 3.58855487 12.45009445 5.56979947
H 2.66326421 13.69437454 5.57374772
H 5.66860102 8.70361842 1.88672075
H 5.67204825 8.70108347 0.33903067
H 5.23064372 10.05055328 5.60715074
H 5.65140809 8.78300479 6.38090510
H 1.63050302 10.81031940 7.74299668
H 1.88340349 12.09200675 6.94895486
H 1.81161739 12.14352839 4.10367841
H 1.78495993 12.15425734 2.55979847
H 2.15803540 12.43893353 0.31001271
H 2.61620373 13.69220329 1.08660602
H 2.15414967 8.49140075 1.86328768
H 3.51303704 8.46928153 1.11691452
H 7.39522536 8.48645342 3.36683015
H 6.06051661 8.49268589 4.14812237
H 6.45260107 7.19376320 7.85472692
H 6.00960330 8.45479941 8.63428753
H 6.05601148 12.42814426 8.62910233
H 6.51671748 13.69482375 7.86793567
H 1.28898242 2.72962411 3.33610650
H 0.38558637 1.47027640 3.34391181
H 4.30611797 4.83650641 1.10816237
H 5.63013263 4.83054648 1.90517213
H 6.47833594 6.37004531 3.37771096
H 6.02159194 5.10831100 4.14632358
H 4.27307915 4.78667362 5.58655547
H 5.17193158 3.52683862 5.57296836
H 2.14291280 1.17949795 4.78928232
H 2.15263288 1.19741105 6.33401083
H 2.14417752 5.11745457 6.36684576
H 2.60349119 6.36264132 5.56867140
H 5.19080443 2.71942183 1.09615363
H 4.28624443 1.46838940 1.08978810
H 5.64513094 1.40337165 4.76953540
H 4.31107469 1.40950043 5.54767605
H 0.37259947 4.83011530 7.85932107
H 1.71432314 4.85417357 8.63091046
H 1.79888514 4.83020263 2.56394829
H 1.79690976 4.82113614 4.11331174
H 2.59360404 6.38139948 1.06129288
H 2.15723525 5.11276011 0.29454855
H 2.13540786 1.19630922 1.87116609
H 2.14300377 1.19272342 0.32422755
H 6.03311048 1.12674210 2.52423987
H 6.48681387 14.46012801 3.28827904
H 7.40900903 1.21300953 7.81131045
H 6.07411667 1.18066319 7.02797781
H 7.39416172 5.09338024 7.79834140
H 6.05160968 5.07426171 7.02811758
H 1.29849756 2.75509247 7.80843564
H 0.42368906 1.47993638 7.80130594
H 8.16468188 1.39947368 3.30728329
H 9.51058948 1.43229673 2.54656607
H 12.07303953 4.84167449 1.08558276
H 13.41048631 4.85926721 0.30559550
H 15.17815228 5.06087282 3.33199747
H 13.83879362 5.06047701 2.55492743
H 13.39696051 4.80060110 4.79650809
H 12.04246561 4.82956146 5.54440630
H 9.88885327 1.21000064 6.37255741
H 9.88035686 1.18163778 4.82322999
H 10.35492449 6.38493147 5.52151812
H 9.90815869 5.10698275 4.77500303
H 13.42790235 1.47674303 1.90152773
H 13.00264839 2.74262479 1.11863684
H 12.02561985 1.44745102 5.60366029
H 12.92919395 2.69768403 5.59698226
H 9.56907568 4.86259426 7.04892163
H 9.56157338 4.87179881 8.59828635
H 9.04189895 3.52539001 3.33970237
H 8.14901650 4.78815700 3.34260862
H 9.92368929 5.07720464 0.33410172
H 9.90698259 5.08486443 1.87894479
H 11.29239855 1.22763070 1.07186363
H 9.96451188 1.20255987 0.27759949
H 14.24172667 14.48235612 3.36043123
H 13.78485593 1.12738992 4.15036818
H 14.29206578 14.47140029 7.79496983
H 13.80833430 1.12261552 7.02925807
H 13.71925352 5.04594347 8.61202034
H 13.72288984 5.04562737 7.05608229
H 9.54420376 1.49650570 8.63011321
H 9.10179807 2.76464664 7.86281458
H 1.75446918 1.43811500 11.48679455
H 0.42447030 1.41664198 12.27711391
H 5.63126674 4.81144225 9.26542340
H 5.18593534 3.55565009 10.04122959
H 6.00450574 5.13793964 11.50616640
H 6.46193177 6.39598327 12.28264032
H 5.68559568 4.85479944 13.78447114
H 5.70723823 4.85019391 15.33479398
H 2.19221107 1.20265026 13.74084328
H 3.52563365 1.21068598 14.52773488
H 3.54856076 5.11096039 14.56140340
H 2.63978785 6.35891659 14.55685531
H 5.67537270 1.43165680 9.29087589
H 5.66590971 1.43777699 10.83843165
H 5.23571125 2.74679146 14.58607969
H 5.66895504 1.47148706 15.34772037
H 1.77690426 4.78847554 15.99520424
H 1.31788183 3.53473828 16.77249232
H 1.32644187 3.53277998 12.33493616
H 1.78043803 4.78959162 13.11667437
H 3.46545558 5.11371204 10.06672332
H 2.14374791 5.10741734 10.85843619
H 2.18767771 1.21494764 9.24096010
H 3.52145508 1.19552269 10.02611753
H 6.05647411 1.20114390 13.10596177
H 7.39686625 1.19130683 12.33629654
H 6.05473582 1.15220755 17.58381243
H 6.49090975 14.48348005 16.82507831
H 7.43160267 5.05828168 16.83693771
H 6.08722551 5.07395422 17.60461834
H 0.41339332 1.41722698 16.77115040
H 1.75463571 1.42859822 15.99880665
H 9.10084333 10.05127631 12.28031440
H 9.53712103 8.78673400 11.51180525
H 13.45464940 12.09213032 10.88638765
H 13.00969886 10.83614804 10.10040424
H 15.17781495 12.37642851 12.36527965
H 13.83289443 12.35833842 13.13370718
H 12.94666380 10.81143465 14.56220624
H 12.05338527 12.07203799 14.56175715
H 9.89904726 8.49644355 13.78110830
H 9.89578548 8.48943915 15.32875389
H 9.91105003 12.36897546 13.78226912
H 9.90632682 12.37102629 15.33189313
H 13.40327148 8.70521164 9.27022840
H 12.04589682 8.73434651 10.01048673
H 13.38111345 8.70284193 13.75285639
H 12.05266583 8.71420337 14.54284242
H 8.17075425 12.14069758 16.84463358
H 9.52271065 12.16640254 17.59578128
H 9.52906581 12.16187117 11.50713649
H 8.18445819 12.16360797 12.27288555
H 9.97664974 12.37871945 9.25060282
H 11.31113967 12.39287731 10.03153432
H 10.36323317 7.20956617 10.04036882
H 9.90365259 8.45323556 9.24412643
H 14.22991631 7.16113905 12.28204057
H 13.77843644 8.42208617 11.51104252
H 15.19731377 8.52159543 16.75926349
H 13.85200166 8.49353408 15.99005879
H 13.78788171 12.37498797 16.02431152
H 13.79783924 12.37611917 17.56841117
H 9.55059225 8.77328987 17.58846467
H 9.09150722 10.03866682 16.82952630
H 1.72564878 8.74601502 13.13444840
H 0.38363633 8.74625647 12.36413186
H 5.18117772 10.84699190 10.06932461
H 4.29192159 12.11198344 10.07665318
H 6.48054651 13.69180163 12.29035831
H 6.03880320 12.42449134 11.51927025
H 5.64115545 12.14552084 13.77426898
H 4.30064789 12.15272021 14.54246936
H 2.18967625 8.48210139 15.35702836
H 3.51756344 8.47827562 14.57296639
H 2.60870460 13.70474875 14.53157953
H 2.16196257 12.43525663 13.76832295
H 4.26229173 8.76957321 10.07824817
H 5.60181058 8.75546677 10.86108596
H 5.65886954 8.77341294 15.37248184
H 5.21077307 10.03910591 14.60087072
H 1.76448076 12.17001057 16.00949633
H 0.42215077 12.15490680 16.77830795
H 1.32794813 10.84804275 12.31946089
H 1.76851385 12.10530422 11.52733469
H 2.59859293 13.70916227 10.04604271
H 2.19007933 12.44673393 9.26042555
H 2.57803608 7.30126197 10.03786147
H 2.15577775 8.52713862 10.85034439
H 6.05560885 8.49412887 13.12854115
H 7.38379182 8.49929320 12.33841257
H 6.53665261 7.18026572 16.80449753
H 7.41926805 8.44917405 16.80970433
H 6.01191955 12.35362945 17.59354719
H 6.02095243 12.38138109 16.04735669
H 1.35684087 10.05495882 16.81610974
H 1.79306909 8.78757388 17.58928608
