381

O 9.08612122 1.76601271 12.32903604
O 12.96605641 4.53198508 10.07110673
O 14.29017320 5.40679686 12.30518686
O 12.99283023 4.52153878 14.55484990
O 10.40215308 0.85281067 14.55683848
O 10.38904447 5.40249457 14.54661395
O 12.94302763 1.78363041 10.07254327
O 12.99022770 1.77611437 14.53957399
O 9.10443010 4.51373567 16.79555407
O 9.07312437 4.50280087 12.30286955
O 10.37639926 5.42111218 10.06139770
O 10.36509604 0.85941747 10.07950974
O 14.25673900 0.84727981 12.29447905
O 14.24846831 0.85095476 16.79065441
O 14.26879767 5.43752190 16.80229920
O 9.10328961 1.77414499 16.79192717
O 9.10797343 9.08599673 3.34747677
O 12.93687807 11.77612975 1.10103896
O 14.21560979 12.66302634 3.32966645
O 12.94336678 11.78797726 5.56198310
O 10.37009612 8.15636262 5.59750129
O 10.36520122 12.69133910 5.59159035
O 12.98331944 9.04207825 1.08827890
O 12.96811324 9.03650210 5.59739922
O 9.07200696 11.78855332 7.82576457
O 9.07616394 11.82283908 3.33656452
O 10.36613421 12.72191370 1.09138207
O 10.38641509 8.16323646 1.10396681
O 14.25712547 8.11620360 3.35009102
O 14.26518448 8.14582633 7.84920680
O 14.25005707 12.71978356 7.80957270
O 9.05722645 9.04349893 7.83180097
O 1.31506704 9.04604237 3.31385830
O 5.20547099 11.81247204 1.08483051
O 6.48667813 12.70706218 3.33709358
O 5.18230722 11.79236355 5.57295612
O 2.61507627 8.18296542 5.57268825
O 2.58035677 12.69939527 5.58003914
O 5.24215940 9.07832463 1.09815446
O 5.20943854 9.04882413 5.58664703
O 1.30455673 11.80021457 7.82080558
O 1.29711943 11.77969180 3.32309321
O 2.62539043 12.70114073 1.09640484
O 2.64848819 8.16878695 1.08793892
O 6.52540919 8.18149296 3.34203076
O 6.47777685 8.12968436 7.83345642
O 6.48916396 12.73552057 7.79288802
O 1.32393002 9.06280611 7.83108322
O 5.22999875 4.54729890 1.08438900
O 6.51152694 5.45113314 3.33622948
O 5.19370443 4.55614945 5.56443220
O 2.52642798 0.89804708 5.65935833
O 2.63019880 5.44936641 5.57305568
O 5.26471659 1.78904236 1.07813376
O 5.18600152 1.78400772 5.55852404
O 1.32478972 4.52443675 7.82437949
O 1.43391853 4.43689889 3.39498826
O 2.61950308 5.42743629 1.05829998
O 2.59900989 0.89655305 0.95867019
O 6.50174228 0.85657417 3.35377122
O 6.49145876 0.87501393 7.80505962
O 6.49618957 5.39701697 7.82509297
O 1.27575735 1.76086925 7.84950335
O 9.06982588 1.76393026 3.34386672
O 12.96846272 4.48790334 1.09378717
O 14.30204227 5.35103225 3.31465887
O 12.99353553 4.49542038 5.57969828
O 10.37464226 0.83324043 5.58528827
O 10.39667903 5.41977801 5.60028029
O 12.94983772 1.73473652 1.10808257
O 12.94847576 1.74813832 5.55876496
O 9.08871741 4.49950280 7.83417350
O 9.09399644 4.50997589 3.35299692
O 10.38601187 5.42187392 1.10920423
O 10.36829441 0.86932808 1.10190363
O 14.31034738 0.71526029 3.33861702
O 14.24565981 0.86627509 7.84279376
O 14.27510478 5.40817803 7.82830447
O 9.08563873 1.75807516 7.82937681
O 1.32078332 1.76106119 12.29173102
O 5.17606611 4.48327833 10.03588572
O 6.49003705 5.41007282 12.26424218
O 5.23971847 4.47399090 14.53832406
O 2.62021907 0.88166281 14.54102150
O 2.64799608 5.40278970 14.57178089
O 5.18798367 1.74699521 10.06696782
O 5.22383619 1.73802817 14.55456879
O 1.32309342 4.50134434 16.79631454
O 1.33550951 4.49798693 12.33620083
O 2.59365449 5.42209133 10.07854803
O 2.60044380 0.83263059 10.06109353
O 6.50223814 0.84272016 12.30451231
O 6.50885936 0.84481393 16.80230259
O 6.51986713 5.41882065 16.77465975
O 1.30167470 1.79074495 16.75145057
O 9.10450209 9.06842562 12.33779659
O 12.95997673 11.80951415 10.06045077
O 14.24854140 12.70739461 12.31189673
O 12.96991760 11.78854083 14.55840963
O 10.40270507 8.14867835 14.57858869
O 10.38556258 12.70637905 14.55353719
O 12.95700882 9.06848603 10.07224552
O 12.98908678 9.05076942 14.53589392
O 9.07628818 11.82573208 16.80146767
O 9.08262651 11.80421903 12.30742683
O 10.36971564 12.71590820 10.05883174
O 10.36559302 8.16372529 10.07886087
O 14.26903907 8.14495418 12.28583096
O 14.28841449 8.17159875 16.79000058
O 14.24751395 12.71234040 16.80406095
O 9.09868138 9.07963869 16.81580057
O 1.31562264 9.05554905 12.31300665
O 5.20335524 11.81318030 10.04164322
O 6.49282967 12.70778829 12.28787463
O 5.20305810 11.81323810 14.54079975
O 2.61168852 8.14816811 14.54828775
O 2.62489072 12.74414894 14.53558407
O 5.21055279 9.07015669 10.07439493
O 5.20500984 9.06908158 14.54566781
O 1.32263024 11.81797125 16.77488917
O 1.30561126 11.79961394 12.31325772
O 2.60465245 12.69051132 10.06438669
O 2.61888298 8.15742333 10.07019224
O 6.51362149 8.15587479 12.30931314
O 6.51650250 8.16560268 16.77961713
O 6.49527310 12.71941870 16.78214145
O 1.33502054 9.08387483 16.79629564
H 9.09276131 2.72910365 12.34352998
H 9.54991903 1.46880813 13.11884259
H 13.44829248 4.84764506 10.84291795
H 13.43954392 4.85332000 9.29657470
H 15.19292075 5.07128660 12.33566585
H 13.85036655 5.08770692 13.10026238
H 12.08445894 4.84070422 14.56767782
H 13.41913540 4.86369176 15.34761640
H 10.42113233 14.49199890 14.55183072
H 11.31788039 1.15021923 14.54827398
H 9.92187461 5.07052297 15.32066738
H 9.91229204 5.08274786 13.77361084
H 13.40541289 1.47988779 9.28372196
H 12.96338360 2.74606183 10.05074527
H 13.00246741 2.73866412 14.56493446
H 13.43943644 1.47221321 15.33551420
H 8.19898372 4.84304299 16.81277426
H 9.53706699 4.84373626 17.58977189
H 8.16764308 4.83034570 12.26801806
H 9.51534717 4.82942128 11.51233451
H 10.39433543 6.38410839 10.06996893
H 11.29424025 5.12831178 10.06929380
H 11.26680177 1.19773454 10.09731903
H 9.93333111 1.18088445 10.87826802
H 13.78314864 1.18796142 11.52841919
H 13.80044051 1.18415416 13.07288875
H 13.78443342 1.14316258 17.58042099
H 14.23761042 14.48991942 16.80810816
H 13.80782877 5.13567989 17.59072101
H 14.26776572 6.40087526 16.82326066
H 9.56443655 1.46786391 16.00379069
H 9.11373424 2.73674542 16.76597913
H 9.56411371 8.78557029 2.55418216
H 9.11108174 10.04923645 3.32094753
H 12.02138367 12.07619165 1.09344600
H 12.92252356 10.81296937 1.09563813
H 13.74661970 12.33378120 2.55315113
H 13.74587964 12.33373696 4.10606027
H 12.93218526 10.82538063 5.58388153
H 12.02379908 12.07713126 5.57753353
H 9.91612296 8.49688334 4.81908369
H 9.88931956 8.47988211 6.36732131
H 9.89625302 12.35462688 6.36337226
H 9.88882078 12.37901461 4.81458559
H 13.46265172 8.72773291 0.31370454
H 13.44404933 8.70584903 1.86326212
H 13.40288096 8.71708353 6.39531897
H 12.05972294 8.71734889 5.62608107
H 9.53314635 12.09180507 8.61523986
H 9.07162655 10.82595845 7.85493761
H 8.16723033 12.14319281 3.31423003
H 9.50951279 12.15944952 2.54511616
H 10.36173327 13.68451260 1.07286206
H 9.90310391 12.42923106 0.29808695
H 9.94746909 8.49699478 0.31345260
H 11.29641394 8.47580612 1.07216917
H 14.25458749 7.15558624 3.37383382
H 13.80248664 8.41818690 4.14418540
H 15.17955762 8.44850735 7.84063591
H 14.29223817 7.18290357 7.84323637
H 14.23747879 13.68280137 7.80163822
H 13.78991396 12.42648250 7.01739831
H 8.15394807 8.70906995 7.85557978
H 9.49572794 8.71688533 8.62463888
H 0.41517332 8.70581129 3.30086781
H 1.75499308 8.72381020 2.51984667
H 5.63820153 12.14953481 0.29339198
H 4.29793673 12.13822265 1.06711774
H 6.01563924 12.37019653 4.10676969
H 6.01593514 12.38767857 2.55978181
H 5.64508803 12.11024361 6.35543694
H 5.20484184 10.83074410 5.60877643
H 3.52271996 8.50654447 5.55396026
H 2.18380526 8.50523646 4.77451743
H 2.15695139 12.37293836 4.78088630
H 3.48849559 12.38254868 5.56002143
H 5.23855787 10.04207194 1.07034024
H 5.68982540 8.77940678 0.29987418
H 5.69066586 8.73216907 4.81493093
H 5.66588442 8.70695608 6.36300168
H 1.74385082 12.12978635 7.02766816
H 0.40252012 12.13478697 7.79547005
H 1.28283336 10.81691077 3.32119479
H 0.37972784 12.06533623 3.32542475
H 2.15115940 12.38345691 0.32276414
H 2.14886881 12.37783810 1.86672986
H 2.66889615 7.20692635 1.06832577
H 3.56406444 8.46841860 1.09431250
H 7.42807320 8.51720918 3.32218677
H 6.09132110 8.51184619 2.54753549
H 6.46747081 7.16653448 7.85944075
H 6.02507769 8.43740761 8.62617413
H 6.51459207 13.69862468 7.78983171
H 7.40228364 12.43145955 7.80711768
H 1.32127529 10.02650541 7.81168658
H 1.77734486 8.77535702 7.03185581
H 5.65840261 4.88616392 1.87751936
H 4.32202305 4.86319941 1.09698118
H 6.54691181 6.41419913 3.33351419
H 7.42223170 5.13858986 3.33735231
H 5.67627110 4.88092042 4.79663984
H 5.67127637 4.86147876 6.34318428
H 3.43658654 1.18980032 5.59638054
H 2.55087848 14.54441132 5.59927146
H 3.55242112 5.16256135 5.57744797
H 2.63980148 6.41375232 5.56860446
H 5.68843218 1.48345638 1.88619319
H 5.26706431 2.74976975 1.10719721
H 5.19844148 2.74472347 5.57410227
H 5.63999449 1.49131951 6.35479460
H 1.80329933 4.85928479 7.06060142
H 1.78452985 4.84914769 8.60634168
H 1.86320735 4.81104112 4.18139014
H 1.60893569 3.50829360 3.42929306
H 2.14661447 5.08395258 0.28994036
H 2.17606528 5.08577934 1.83553974
H 2.62052222 14.54489665 1.04139946
H 3.50750496 1.19093864 1.02433915
H 6.02433520 1.15830079 4.13517733
H 6.47330626 14.49655329 3.36415823
H 7.39520208 1.20606795 7.83401153
H 6.05446327 1.18771718 8.60366341
H 6.04841165 5.04946847 8.60439398
H 7.40174244 5.07039189 7.85151219
H 1.74109356 1.45570526 7.05409016
H 1.30476188 2.72127558 7.83029895
H 8.16379704 1.43284972 3.37011502
H 9.50708250 1.42317893 4.13052711
H 12.93517193 3.52619852 1.08848049
H 12.05578749 4.79758305 1.10522117
H 15.19590020 5.00837338 3.29673162
H 13.85645511 5.03459804 2.51987134
H 13.44774161 4.77805611 4.78046202
H 12.97781434 3.53328639 5.55717037
H 9.92150554 1.14061806 6.37809800
H 10.35442549 14.47251142 5.61118597
H 10.40624897 6.38319218 5.59491164
H 11.31379808 5.12983805 5.59357359
H 12.03961484 1.41465536 1.13213003
H 13.39287855 1.38120688 1.88042529
H 13.38891179 1.38181561 4.79088731
H 12.04340274 1.41419968 5.54984738
H 9.55682805 4.83122677 7.06111602
H 9.55862977 4.83731792 8.60476612
H 9.09176084 3.54670331 3.36808001
H 9.55244806 4.79966202 4.14833257
H 10.37430520 6.38498923 1.12630342
H 9.92995686 5.12283354 1.90308059
H 9.91234730 1.20267993 0.32071900
H 9.88499094 1.19369851 1.86985085
H 15.23050384 0.93155695 3.34916326
H 14.27363915 14.34596014 3.33482451
H 15.15374438 1.19519823 7.82440636
H 13.81596866 1.19446091 7.04869750
H 15.18106254 5.07978295 7.80937453
H 13.84336233 5.07509276 7.03512855
H 9.10286178 2.72103361 7.84479087
H 9.53719153 1.46196526 8.62727530
H 1.75576916 1.42364825 11.50056981
H 0.41614960 1.43236409 12.27227264
H 4.26245199 4.78714876 10.04750643
H 5.15133616 3.52002740 10.05161155
H 6.48073639 6.37290376 12.25607643
H 6.02227211 5.11481045 11.47611444
H 5.25089037 3.51066690 14.51764077
H 5.67793462 4.77738984 13.73697579
H 2.15608386 1.20769727 13.76305646
H 2.13928520 1.21106054 15.30947782
H 3.55089193 5.06898254 14.58679078
H 2.21026494 5.06962510 15.36219965
H 4.28792838 1.40390187 10.08011398
H 5.62481615 1.42266543 10.86113065
H 5.65018641 1.41142656 15.35441487
H 4.31271502 1.42529209 14.57166428
H 1.28887342 3.53596442 16.78204153
H 0.41216825 4.81197975 16.78740660
H 1.80171675 4.78661768 13.12777453
H 1.34782923 3.53459241 12.33834345
H 2.14644494 5.12344786 10.87745917
H 2.59232428 6.38519529 10.09884449
H 2.58482293 14.47212631 10.03868782
H 2.13804971 1.13831891 9.27204052
H 6.07174163 1.16201007 13.10495759
H 7.40570507 1.17549936 12.32476633
H 6.08215501 1.18605584 17.59806702
H 7.41179056 1.17711337 16.81007469
H 6.04627779 5.09914414 17.55000781
H 6.06228170 5.06981052 16.00226214
H 1.76430140 1.45334630 17.53548803
H 0.40546618 1.44505161 16.78876291
H 9.56232230 8.77253364 13.13125913
H 9.10993423 10.03175819 12.35134540
H 13.41863948 12.10291118 9.26647763
H 12.97055861 10.84630462 10.04768465
H 13.79102245 12.41361667 11.51707375
H 14.24065189 13.67058568 12.29300654
H 12.99260891 10.82596109 14.53113606
H 13.42355648 12.09754926 13.76667165
H 9.94422197 8.44997444 15.36981877
H 10.37835917 7.18597044 14.58947377
H 11.28570418 12.36391043 14.53574729
H 9.95032580 12.38449724 13.75718518
H 13.43070321 8.73564546 10.84256534
H 13.42511082 8.73122062 9.30090668
H 13.41444081 8.71496807 13.73956766
H 12.08437877 8.71988080 14.53179720
H 9.51333786 12.14493019 16.00486647
H 8.17005671 12.15344295 16.77364920
H 9.51385209 12.13296536 11.51152720
H 8.17501415 12.12666407 12.28430885
H 11.28542954 12.41757742 10.06122527
H 10.39181360 13.67872500 10.06475125
H 11.26922700 8.49681314 10.09114572
H 9.93976341 8.49073183 10.87866888
H 14.29947841 7.18202576 12.29194374
H 15.18365723 8.44795003 12.29707509
H 13.85190475 8.48905742 15.99201060
H 15.19157805 8.50692271 16.76929286
H 13.78292341 12.37306882 17.57521508
H 13.78129522 12.37686167 16.03080891
H 9.06908358 10.04230043 16.80817908
H 8.18439342 8.77570844 16.80093586
H 1.79047085 8.73924373 11.53720425
H 1.78563969 8.72203796 13.08488589
H 5.63155693 12.15076020 9.24795967
H 4.29376785 12.12985915 10.02762343
H 6.48710544 13.67106892 12.27403048
H 6.03565633 12.41688726 11.49155328
H 4.30193034 12.15338903 14.51968680
H 5.63622538 12.13324722 13.74233148
H 2.61395579 7.18565938 14.57960393
H 2.16128713 8.45241502 15.34312916
H 2.16005093 12.44183194 13.74861623
H 2.61121354 13.70747915 14.51702905
H 5.22303833 10.03337692 10.07989774
H 5.67235790 8.78059980 10.86833506
H 4.29071224 8.76747613 14.54481252
H 5.17919742 10.03203031 14.54427907
H 0.41856772 12.14669227 16.75969380
H 1.75965176 12.16026990 15.98803980
H 1.28757465 10.83692430 12.32363110
H 0.38959700 12.09642984 12.31247613
H 2.13092834 12.35954515 9.29377772
H 2.13727432 12.36354121 10.84035191
H 2.18390352 8.48830465 9.27667863
H 3.52271931 8.48902096 10.05203427
H 6.07483467 8.48291517 13.10166817
H 7.42019250 8.47933260 12.34051712
H 6.50601337 7.20279668 16.75871015
H 6.04958377 8.46355910 15.99157706
H 6.03753829 12.42466460 15.98757632
H 6.48457913 13.68328494 16.77015729
H 1.80122228 8.79275406 17.58649448
H 1.34616003 10.04758837 16.80403176
