381

O 9.09968185 1.76110183 12.33847442
O 12.96868319 4.50156069 10.08152560
O 14.26132099 5.41373568 12.32123686
O 12.95084457 4.48093235 14.55836914
O 10.38067566 0.83748868 14.58144349
O 10.36545830 5.41570778 14.56223010
O 13.00131993 1.76307168 10.04658443
O 12.96042663 1.73903175 14.52500615
O 9.09367770 4.50999821 16.80003545
O 9.10126335 4.49557164 12.31658728
O 10.37853325 5.41182932 10.07430668
O 10.41179204 0.86843214 10.09034873
O 14.28416205 0.85796877 12.28775204
O 14.25809063 0.83849807 16.75675502
O 14.27008623 5.40010734 16.77835021
O 9.08383285 1.76731387 16.80339610
O 9.07428123 9.05010241 3.35162452
O 12.95059523 11.78863290 1.05354914
O 14.23410002 12.72248642 3.29345042
O 12.97724068 11.83109523 5.57053875
O 10.36584640 8.16993397 5.60054465
O 10.36451347 12.70711517 5.56802272
O 12.96149301 9.04045742 1.09862468
O 12.96707698 9.08306749 5.57437356
O 9.11162287 11.77485977 7.82138595
O 9.07964116 11.78802227 3.31839430
O 10.36156474 12.69970615 1.08095577
O 10.38202389 8.13394355 1.12633417
O 14.27375111 8.14879779 3.34826981
O 14.26998014 8.17157608 7.81979185
O 14.25383286 12.75473215 7.83593392
O 9.08972116 9.03128620 7.86347928
O 1.33095433 9.05544264 3.36070787
O 5.20785860 11.81483261 1.08038365
O 6.49601743 12.70206885 3.33710454
O 5.24923777 11.80339323 5.57515570
O 2.64652541 8.17553137 5.60145807
O 2.72919570 12.66702308 5.53814946
O 5.18025529 9.06501905 1.06263162
O 5.24271666 9.07705519 5.57990365
O 1.31922143 11.83007482 7.81699275
O 1.29216761 11.77877902 3.28891171
O 2.62239733 12.71305298 1.05741094
O 2.59501661 8.13608243 1.11779549
O 6.48093819 8.14699833 3.30825297
O 6.50251135 8.12689836 7.81656592
O 6.53154689 12.70917868 7.85025699
O 1.32909008 9.10619229 7.81489154
O 1.28190444 1.82139323 3.41865644
O 5.19263337 4.51805981 1.09576268
O 6.48123822 5.40025014 3.36352213
O 5.13589294 4.43992387 5.58792045
O 2.59371959 5.43780454 5.56499532
O 5.20763880 1.78443848 1.09688377
O 5.18381518 1.62084170 5.55301414
O 1.32743258 4.59856025 7.80045024
O 1.29233577 4.49985657 3.37198154
O 2.60233140 5.40732162 1.10939812
O 2.62649913 0.87393040 1.14340472
O 6.48249211 0.86832881 3.33167638
O 6.56928242 0.86343353 7.85129607
O 6.47001700 5.38448331 7.80985969
O 1.26390431 1.79999143 7.72553979
O 9.07469521 1.75189810 3.33618851
O 12.96892582 4.51420564 1.07612499
O 14.25268530 5.41394058 3.33261411
O 12.95584036 4.48882951 5.58092899
O 10.35225518 0.83853949 5.58179486
O 10.37935852 5.42636198 5.58120357
O 12.92878030 1.77233595 1.02077737
O 12.93319822 1.75515716 5.52476880
O 9.08388766 4.53020092 7.82502791
O 9.07222286 4.49845610 3.34882503
O 10.37454180 5.39418941 1.11381015
O 10.36561691 0.83848900 1.08883168
O 14.19670571 0.87190629 3.24584991
O 14.26777826 0.88944612 7.79007902
O 14.23878336 5.42598560 7.83281613
O 9.13150629 1.78639473 7.85899985
O 1.33450707 1.76594126 12.29151551
O 5.22177498 4.50593349 10.08814105
O 6.51412756 5.41238300 12.34185729
O 5.19104187 4.48641486 14.57396865
O 2.60007098 0.85827524 14.56561483
O 2.60735287 5.41105207 14.53505062
O 5.20420923 1.76203676 10.08112489
O 5.19828970 1.75118607 14.57785805
O 1.33649233 4.49482498 16.78706368
O 1.32458197 4.51238869 12.28537568
O 2.63286206 5.45403824 10.06184271
O 2.63210537 0.85383011 10.01445975
O 6.50261370 0.86154600 12.32761089
O 6.50125810 0.85353110 16.81804996
O 6.49885618 5.41458314 16.78801176
O 1.31194227 1.75881300 16.82458244
O 9.08834702 9.08832595 12.33997307
O 12.98378934 11.82262310 10.07285994
O 14.29224506 12.72509536 12.30583794
O 12.98598389 11.82475116 14.53289233
O 10.40201561 8.15260148 14.55132441
O 10.38556732 12.69031177 14.56053170
O 12.96829304 9.08057354 10.06870405
O 12.97482457 9.08900685 14.55782360
O 9.07393274 11.77916137 16.78174749
O 9.08480856 11.82777421 12.30382311
O 10.39564148 12.71762544 10.05618169
O 10.38899899 8.14747395 10.11160815
O 14.24435599 8.15170205 12.31898001
O 14.25827064 8.14877918 16.80177993
O 14.27896974 12.70985013 16.78184478
O 9.11701360 9.03820481 16.80291790
O 1.31423774 9.03529824 12.29956411
O 5.22567425 11.77903714 10.08189284
O 6.49128821 12.72274825 12.31702469
O 5.18756476 11.80896305 14.55129535
O 2.62052862 8.15385307 14.55036297
O 2.59156553 12.70938007 14.55002209
O 5.22552162 9.03512204 10.06052833
O 5.21110298 9.07222027 14.56042715
O 1.31175431 11.78126866 16.79138543
O 1.33489276 11.78203590 12.29850578
O 2.62969018 12.70901115 10.07029050
O 2.62333887 8.18705897 10.03801106
O 6.50345480 8.15745425 12.31521113
O 6.52315343 8.15795768 16.78445716
O 6.50978190 12.71890505 16.78443845
O 1.31844665 9.03905508 16.80184467
H 8.19314951 1.43588184 12.34549324
H 9.52352756 1.42496567 13.13508367
H 13.40437801 4.83120151 10.87472266
H 12.06315102 4.82780760 10.10400409
H 14.24024261 6.37642519 12.34592237
H 13.80304771 5.10531673 13.10942425
H 12.03731368 4.78514413 14.56084821
H 12.92608420 3.51820296 14.54509776
H 10.39997215 14.47677149 14.57683010
H 11.29843365 1.13063267 14.55776843
H 9.91973819 5.11681744 13.76198610
H 10.37295646 6.37861403 14.53389735
H 13.00696041 2.72589344 10.03688990
H 13.45139338 1.47467237 9.24354445
H 13.43375893 1.42368019 13.74739906
H 13.43900904 1.40992253 15.29354818
H 8.18734083 4.83427943 16.77971650
H 9.52392301 4.84753766 16.00617164
H 9.55119231 4.79235892 11.51814923
H 9.11621234 3.53240433 12.30585306
H 9.92036482 5.13069276 9.27551111
H 10.37437659 6.37511316 10.07247111
H 11.31886089 1.19358564 10.10462390
H 9.98256908 1.18519684 10.89166854
H 13.85370163 1.17972481 11.48781730
H 15.18661465 1.19484829 12.27032590
H 15.16966248 1.14682693 16.78498961
H 14.29073648 14.47742078 16.76965668
H 15.17636508 5.07652976 16.75588750
H 13.82986059 5.06348163 15.99028618
H 9.09655693 2.73042358 16.78343722
H 9.54591819 1.46635163 16.01319986
H 9.49950794 8.73453694 4.15667381
H 8.17070246 8.71798778 3.36103298
H 12.03436146 12.08515083 1.06106528
H 12.93053011 10.82601908 1.06798996
H 13.77833111 12.40863363 2.50542297
H 14.21661959 13.68326837 3.25616496
H 12.07101024 12.15418166 5.54834239
H 13.40452089 12.15404634 4.77052170
H 9.91945677 8.45181951 6.40637466
H 10.36979143 7.20716574 5.61106342
H 9.89705650 12.37368654 4.79518526
H 9.91187614 12.35500318 6.34208488
H 13.40462484 8.72759869 1.89386983
H 12.05846681 8.70614860 1.13342165
H 12.05007149 8.79046578 5.57877340
H 12.95131620 10.04610618 5.57351805
H 9.57178015 12.08390492 8.60917739
H 9.11169981 10.81254046 7.85875181
H 8.16414495 12.08707408 3.32727853
H 9.05765842 10.82497726 3.32630834
H 9.89456596 12.36925304 1.85649180
H 9.89125501 12.36526123 0.31001425
H 9.91682946 8.43798553 1.91323323
H 10.36160536 7.17133810 1.14558348
H 13.83615006 8.48824008 4.13629743
H 15.18061355 8.47319459 3.37168777
H 14.25059115 7.20888457 7.80537745
H 13.80827155 8.46839166 7.02903549
H 14.25353363 13.71807793 7.80056780
H 13.80971797 12.45060518 7.03850349
H 8.18574991 8.69934680 7.87604151
H 9.52114160 8.70714602 8.66101222
H 1.32755379 10.01982878 3.36014280
H 1.79760058 8.77741823 4.15608243
H 5.68488800 12.14583332 0.31189229
H 5.67501392 12.13236748 1.86023314
H 6.48662092 13.66270072 3.35340102
H 6.04734504 12.40568603 4.13927912
H 4.32870102 12.11155789 5.58576438
H 5.66869536 12.13307740 6.37491521
H 3.55022813 8.50713793 5.61996432
H 2.20611209 8.51597008 6.38813114
H 2.22349943 12.37329988 4.78040624
H 2.22290138 12.41503634 6.31154803
H 5.19754958 10.02759501 1.05007027
H 5.64978328 8.76999202 0.27535464
H 5.67768050 8.77835513 4.77519567
H 5.25797831 10.04146016 5.56459175
H 1.76061150 12.15348237 8.60830442
H 0.42379356 12.18019298 7.83689143
H 1.72999646 12.11210984 2.50079932
H 0.39426945 12.12268745 3.27635877
H 3.53909934 12.41661057 1.07064726
H 2.64375479 13.67370094 1.08013499
H 3.49750447 8.47195277 1.11610617
H 2.17221535 8.47517379 1.91509818
H 6.02460417 8.44293488 2.51388611
H 6.45948395 7.18494640 3.30506011
H 6.47307456 7.16520396 7.78520344
H 6.06174184 8.44551936 7.02101775
H 7.44220915 12.39595440 7.83783378
H 6.57225267 13.66991723 7.85880487
H 0.41784612 8.79665414 7.81193673
H 1.29728933 10.07081965 7.81233838
H 1.29374007 2.79176022 3.43333443
H 1.54233165 1.53710869 4.28199441
H 4.28704341 4.84555729 1.12256374
H 5.62817596 4.83680029 1.89276260
H 6.04473356 5.05582358 4.14760334
H 7.38788368 5.07451215 3.37861895
H 4.23094729 4.77415904 5.57957174
H 5.07943489 3.48432323 5.58098646
H 2.13801579 5.15970585 6.37059820
H 2.61663781 6.40133656 5.58619947
H 5.21493154 2.74766612 1.06624695
H 5.66080291 1.47384633 0.30464459
H 4.39095819 1.11003115 5.61857968
H 5.63017061 1.33567786 4.74058841
H 0.41414071 4.89820245 7.84386554
H 1.76484169 4.90521988 8.60089415
H 1.72729371 4.86093123 4.15475068
H 0.38732321 4.83392143 3.37509046
H 2.13968031 5.10483542 1.89626568
H 2.58494102 6.37113830 1.13364608
H 2.21329783 1.18700698 1.94874566
H 3.53164143 1.20516343 1.14626752
H 6.05817639 1.20487854 2.53384266
H 7.39200598 1.18863501 3.32120478
H 7.47093223 1.20572946 7.84873298
H 6.15416981 1.16829520 7.04343469
H 5.98472228 5.03470483 7.05705676
H 6.02104737 5.06803993 8.60161925
H 1.31151038 2.75507163 7.77426236
H 1.74962083 1.47050500 8.48178281
H 9.54526149 1.41670528 2.56547959
H 9.53852864 1.42227380 4.11380440
H 12.96433463 3.55183646 1.04403831
H 13.43002751 4.81066971 0.28389942
H 13.79957658 5.12062909 2.53513573
H 14.24510269 6.37767399 3.32105731
H 12.96014023 3.52588361 5.54617266
H 13.41309089 4.79482368 4.79139880
H 9.92371226 1.14986240 6.38558067
H 10.33544071 14.47741714 5.60881152
H 9.94530475 5.09189837 4.78966019
H 11.28117778 5.08758789 5.56621107
H 12.02615255 1.43366604 1.01692083
H 13.36284334 1.43006862 0.23181534
H 13.34605319 1.42308464 4.72240943
H 12.03114320 1.41828748 5.53322167
H 9.51698834 4.85790966 7.02967574
H 8.17301933 4.84049864 7.79785435
H 9.53150503 4.79712700 2.55613706
H 9.08801020 3.53607037 3.32677319
H 11.28426437 5.07896817 1.08294005
H 9.94329357 5.07677532 0.31303072
H 9.90051811 1.14601763 0.30270738
H 10.34875243 14.47759811 1.06447231
H 15.08922078 1.22023077 3.24272314
H 13.76417183 1.20201887 2.44902474
H 13.82672625 1.19977949 6.99506831
H 15.17734784 1.22174211 7.75269959
H 13.77629771 5.09252891 8.60884156
H 13.78045602 5.07546541 7.06267712
H 9.13711061 2.74935918 7.87159422
H 9.58934111 1.49122979 8.65445437
H 1.34664706 2.72844334 12.30469253
H 1.78346930 1.47147017 13.08989957
H 5.68096236 4.80008560 10.88149956
H 5.21880663 3.54297737 10.10966824
H 6.07550903 5.07848976 13.13089630
H 7.41760093 5.07950940 12.35872043
H 4.27731970 4.78985577 14.55256145
H 5.16647950 3.52344710 14.57477010
H 2.16988210 1.18769378 15.36081811
H 3.50936088 1.17368948 14.59172765
H 2.60403085 6.37400714 14.51907843
H 2.14980479 5.11872689 13.73917027
H 4.29912950 1.42939302 10.03975822
H 5.65612566 1.44210601 9.29537675
H 5.67615458 1.42425154 15.34727671
H 5.66636351 1.42885988 13.80021724
H 1.79619713 4.83552757 17.56102285
H 1.80355328 4.82588866 16.01217510
H 0.41836374 4.83679960 12.27063816
H 1.75947175 4.85289416 11.49640884
H 2.66303736 6.41685144 10.05182420
H 3.54383143 5.14412976 10.07091154
H 2.61544728 14.49407080 10.04340195
H 2.17237752 1.15560856 10.80265508
H 6.48365781 14.50085106 12.30151613
H 6.03844734 1.16437110 11.53984284
H 6.52772174 14.49242190 16.81143177
H 7.41567179 1.15623262 16.81037724
H 6.02225902 5.07959984 16.02015585
H 6.02911271 5.09633150 17.56503214
H 1.32921981 2.72224319 16.83038521
H 1.76779262 1.47072556 17.62061798
H 8.17550115 8.78103412 12.32978423
H 9.05742146 10.05100945 12.32674771
H 13.44547804 12.16408137 9.29857718
H 13.46103320 12.14566960 10.84445922
H 15.20469727 12.41695740 12.29997506
H 14.32020398 13.68825350 12.29571891
H 13.45339449 12.15408550 15.30789830
H 13.46127726 12.15438752 13.76196304
H 11.30309542 8.49220173 14.52891369
H 9.95335232 8.49938015 13.77241897
H 9.95065742 12.38018114 13.75906163
H 11.29383280 12.37110963 14.52794207
H 13.42622630 8.77553180 9.27825704
H 12.99056744 10.04340917 10.04580499
H 12.99575438 10.05215313 14.57461733
H 13.42987778 8.78444745 15.34981059
H 9.09990674 10.81636612 16.77074612
H 9.54659267 12.07687793 15.99648280
H 9.51723650 12.15247441 11.50708516
H 8.18081057 12.16032464 12.28988373
H 11.31219832 12.42007935 10.07084467
H 10.42099621 13.67988304 10.06012880
H 11.29067073 8.48648585 10.11246113
H 9.95866057 8.48701177 10.90317963
H 13.78108322 8.49747327 13.08921007
H 13.78349807 8.48482604 11.54180246
H 14.24748365 7.18613021 16.80626174
H 13.79625239 8.43622308 17.59677650
H 13.82860117 12.37532173 17.56469431
H 15.17864123 12.36543021 16.80925734
H 9.59071712 8.71100007 16.03050780
H 9.58196420 8.71209962 17.58024209
H 1.75283287 8.70639415 13.09076570
H 0.40786690 8.71181307 12.32632815
H 5.24011228 10.81670269 10.05139340
H 5.68418446 12.08779048 9.29356788
H 6.01939313 12.39506764 13.08994583
H 6.02932311 12.37768551 11.54484211
H 5.16896272 10.84589567 14.55467830
H 4.27181189 12.10638853 14.55523809
H 3.52481299 8.48409347 14.57137022
H 2.18490359 8.47783824 15.34549559
H 2.57955261 13.67198960 14.56738364
H 2.13560511 12.40957556 15.34338687
H 5.65314802 8.70278177 9.26405680
H 4.31150309 8.73234179 10.03177810
H 5.69201824 8.74325795 15.32753991
H 5.67406869 8.74492471 13.78186376
H 1.32743163 10.81840662 16.81180098
H 1.78051382 12.08519817 17.57617114
H 1.78201550 12.07961435 13.09771052
H 1.33395073 10.81943045 12.31940114
H 2.19587043 12.36973590 10.86002389
H 3.53137132 12.37407144 10.08630302
H 2.15183138 8.52592825 9.26859229
H 2.15036445 8.49974520 10.81603445
H 6.04749885 8.44465197 11.51639174
H 6.49718082 7.19456837 12.30664109
H 7.44260480 8.44495461 16.79456212
H 6.53427831 7.19505304 16.78614696
H 7.40727636 12.36897610 16.75514570
H 6.05908536 12.39457031 15.99743283
H 0.41123473 8.71563439 16.81536488
H 1.74205674 8.70608247 17.59976379
