381

O 9.12027937 1.75193331 12.32501256
O 13.00316464 4.51444583 10.07485594
O 14.28146436 5.42756080 12.32685163
O 12.96506271 4.52145595 14.55800639
O 10.39369345 0.84721580 14.56106385
O 10.37489083 5.42255488 14.57212057
O 12.97131716 1.77723937 10.06280473
O 12.97136037 1.77721843 14.55811934
O 9.07976682 4.49345324 16.79580085
O 9.11673606 4.48859858 12.33120439
O 10.40497335 5.39816157 10.07738295
O 10.38505787 0.88536075 10.06908651
O 14.24457193 0.84347188 12.31283816
O 14.28260994 0.85253796 16.78344673
O 14.26819322 5.43834382 16.79030944
O 9.07097147 1.74841197 16.78359202
O 9.09055662 9.08525625 3.32202082
O 12.95053276 11.80565275 1.10405578
O 14.21995658 12.73200011 3.33872030
O 12.97920859 11.79322678 5.59595328
O 10.36696626 8.17472148 5.58241153
O 10.38302920 12.73559464 5.56593706
O 12.97862860 9.06449374 1.10191433
O 12.96672150 9.04770999 5.58672684
O 9.07826101 11.74759572 7.85619698
O 9.09132656 11.82077139 3.31924377
O 10.36191818 12.74085412 1.07021034
O 10.38607324 8.14304029 1.07115013
O 14.27172830 8.14927427 3.34248540
O 14.24496203 8.13675160 7.82758258
O 14.24126205 12.71775163 7.86027722
O 9.07733106 9.07053951 7.81385194
O 1.32651452 9.07172406 3.35451078
O 5.19939010 11.79463544 1.12919324
O 6.50869586 12.75125192 3.36342635
O 5.21183501 11.91758193 5.57164540
O 2.61683312 8.18115718 5.60014183
O 2.53864140 12.72754599 5.59501449
O 5.18032628 9.05480281 1.11791940
O 5.19560332 9.10108039 5.61390000
O 1.27259516 11.77673732 7.84675556
O 1.27676622 11.80871140 3.32583633
O 2.59723832 12.71491139 1.09942775
O 2.59046740 8.14951865 1.09571953
O 6.50594917 8.18441835 3.36261396
O 6.47931085 8.12673647 7.84575216
O 1.29024268 9.04067046 7.84424257
O 1.32054165 1.74724838 3.33448412
O 5.21375978 4.52750232 1.11670726
O 6.51695814 5.45645044 3.34947937
O 5.22292912 4.51761231 5.58881667
O 2.62323780 0.84217144 5.57174634
O 2.63604424 5.43991057 5.59200317
O 5.20828397 1.78036499 1.08410147
O 5.20185703 1.75634792 5.53813917
O 1.34395835 4.51283281 7.81402070
O 1.33229233 4.48754610 3.35865568
O 2.60953820 5.40618554 1.10665533
O 2.62374580 0.86014269 1.08520911
O 6.51219320 0.86478423 3.31761330
O 6.50094288 0.75591804 7.65668314
O 6.52010264 5.37889626 7.83820276
O 1.31328416 1.77748348 7.80430346
O 9.10812075 1.77531907 3.33935989
O 12.98190055 4.51552970 1.08031620
O 14.28620653 5.40584598 3.32787210
O 12.97584384 4.49766499 5.57089377
O 10.39158105 0.84742878 5.57700962
O 10.38944844 5.44115237 5.59083854
O 12.96443252 1.77686838 1.06509837
O 12.96560365 1.76014357 5.56466929
O 9.11215913 4.50971720 7.84324691
O 9.09959976 4.52064174 3.35452979
O 10.38136225 5.38911514 1.08886948
O 10.36916755 0.87432245 1.08518447
O 14.24597426 0.86875200 3.31330710
O 14.25471819 0.86566600 7.81589111
O 14.27619846 5.39429178 7.81331369
O 9.10698114 1.75881553 7.82921702
O 1.29831327 1.75742985 12.27502399
O 5.20757428 4.45449112 10.06892635
O 6.52114643 5.39312332 12.30612956
O 5.21833537 4.47774583 14.53709694
O 2.62002749 0.89365864 14.51832259
O 2.64021595 5.40752751 14.55536165
O 5.24281322 1.68080288 10.01230366
O 5.23247304 1.73962151 14.49625536
O 1.31930130 4.52518114 16.79534627
O 1.32508118 4.49999436 12.31872584
O 2.63122779 5.39678528 10.08274593
O 2.61884347 0.83049517 10.04227859
O 6.54874151 0.82133596 12.25240244
O 6.47669679 0.84247796 16.77350861
O 6.49088872 5.40372154 16.78853744
O 1.33610949 1.77223465 16.78068859
O 9.10974249 9.06252219 12.28239107
O 12.99188906 11.80339110 10.11554215
O 14.29866788 12.69902659 12.36161327
O 12.96076101 11.78665231 14.57573848
O 10.34209285 8.16052559 14.56663919
O 10.37477366 12.70035861 14.53550095
O 12.96915234 9.06313630 10.07677531
O 12.93714126 9.04588082 14.57195673
O 9.07031496 11.80442900 16.77843559
O 9.10439320 11.80525067 12.28361415
O 10.40681999 12.74579105 10.09672060
O 10.38634682 8.15284240 10.03008742
O 14.25225533 8.17357898 12.33443824
O 14.26339160 8.17207856 16.80755620
O 14.25839918 12.71191120 16.80297102
O 9.04816768 9.06849002 16.80862228
O 1.30620483 9.06969097 12.33143115
O 5.12656423 11.77555008 10.00904544
O 6.48590412 12.67999108 12.28888390
O 5.20740360 11.81800624 14.55082450
O 2.62719244 8.14918612 14.55499556
O 2.62286409 12.75200428 14.53586032
O 5.16008880 8.99618983 10.11115400
O 5.21828589 9.06426681 14.54413628
O 1.32720984 11.82859194 16.77609415
O 1.35044829 11.81137458 12.27826292
O 2.60801722 12.68441719 10.02090201
O 2.57974082 8.14448135 10.08934769
O 6.53070365 8.13632055 12.32272966
O 6.46259411 8.14373833 16.81629311
O 6.47765419 12.70356923 16.81806766
O 1.32155465 9.07937650 16.78648225
H 9.12149722 2.71525837 12.35130046
H 9.57204437 1.45300775 13.12252138
H 13.47438358 4.84967713 10.84460245
H 13.46633973 4.84032190 9.29551967
H 13.81085659 5.12567812 13.11128522
H 14.26135739 6.39018884 12.34819687
H 13.40357211 4.85828439 15.34675888
H 12.05927920 4.84825138 14.58363621
H 9.94980580 1.17075220 15.35258889
H 11.29613580 1.18297582 14.58825084
H 10.34712242 6.38525162 14.58945821
H 9.91535379 5.11566137 15.36154559
H 13.42676108 1.47684618 9.26877009
H 13.00071628 2.74015461 10.04823584
H 13.43970768 1.47311053 15.34308181
H 12.98142665 2.74005652 14.58229281
H 9.53630315 4.78317418 17.59333584
H 9.08568178 3.53045360 16.80846423
H 9.53950179 4.83091075 13.12673339
H 8.21161461 4.81642026 12.33639099
H 9.97632056 5.07326857 10.87571372
H 11.31446906 5.08217515 10.09839775
H 9.96511980 1.20371398 10.87578160
H 11.28844988 1.22048183 10.07549440
H 13.78408164 1.18745393 13.08582310
H 13.77534913 1.17212553 11.53877955
H 15.20067995 1.14250203 16.78397880
H 14.29222689 14.49138667 16.79113152
H 15.18323306 5.13741069 16.78870712
H 14.29339313 6.40162237 16.79604638
H 9.49961401 1.42733633 17.58450311
H 8.16664589 1.41789681 16.79909626
H 9.54847191 8.77696563 2.53435219
H 9.10579030 10.04862698 3.29645487
H 13.37724995 12.14395934 1.89929390
H 12.04760791 12.13955475 1.11258951
H 13.78392223 12.42971305 4.14273019
H 14.21297348 13.69470124 3.35718363
H 13.41885587 12.09093678 6.39826624
H 12.99003242 10.83069917 5.61194055
H 9.90160793 8.50525235 4.80716267
H 9.89751062 8.51325742 6.35436540
H 9.94895089 12.39953483 4.77548876
H 11.27887523 12.38651023 5.56106316
H 13.43335016 8.76651789 1.89698075
H 12.97314744 10.02757509 1.12771038
H 13.39964316 8.72068442 4.79137726
H 12.05500633 8.73719727 5.56067327
H 9.54552786 12.10960785 8.60943262
H 9.50645169 12.10379200 7.07748231
H 8.18602761 12.15066680 3.32458599
H 9.50986511 12.16557744 2.52385091
H 10.35394370 13.70360730 1.04913407
H 9.91013255 12.43779449 0.27607063
H 10.40739999 7.18062940 1.07911409
H 11.30152934 8.44126416 1.07966034
H 14.30094087 7.18667969 3.33663693
H 15.18556973 8.45318581 3.35183085
H 13.78857338 8.43492683 7.03274949
H 14.24061455 7.17397172 7.80345037
H 13.79023473 12.43005749 8.66133908
H 14.23347412 13.68033688 7.86181409
H 9.05932413 10.04043127 7.82997587
H 8.16316785 8.77471250 7.82271924
H 1.31868857 10.03475624 3.32496722
H 1.77276493 8.77272187 2.55555716
H 4.28533484 12.09517126 1.12003707
H 5.17229181 10.83179739 1.13057365
H 6.03849292 12.44238094 4.15262468
H 6.03267555 12.40165359 2.60463040
H 4.28971521 12.17640009 5.58051856
H 5.21783568 10.96095831 5.61839548
H 2.18610656 8.51176340 4.80446218
H 3.51858128 8.52284644 5.58895908
H 2.07979863 12.37368070 6.36237159
H 2.08334398 12.39112955 4.81698140
H 4.27692728 8.72174381 1.10082227
H 5.60903536 8.72318471 0.32212726
H 5.66041117 8.75455186 6.38115804
H 5.67170975 8.78647576 4.83994858
H 1.24828414 10.81341828 7.84051899
H 0.35887348 12.08357254 7.84978374
H 1.72048228 12.14518094 2.54006895
H 0.37408360 12.14219654 3.30102811
H 2.15301374 12.42360664 0.29642432
H 2.60229634 13.67747661 1.07639939
H 2.13921792 8.44850368 0.29968466
H 2.57651432 7.18681471 1.08310046
H 6.05818361 8.50527959 2.57322833
H 7.40873640 8.51842874 3.32676022
H 6.01924781 8.40484993 8.64213957
H 6.48693876 7.16459152 7.85506013
H 0.38889156 8.70134913 7.81051089
H 1.73726700 8.72788620 7.04981659
H 1.78400600 1.40482341 4.10616713
H 1.79448005 1.42677213 2.55981093
H 5.67659237 4.84735688 0.33557439
H 5.68569156 4.87180905 1.88249085
H 6.50020184 6.42029361 3.37298560
H 6.05769633 5.15135496 4.13812490
H 5.22262293 3.55608542 5.58518125
H 5.68761114 4.79279511 6.38650404
H 2.16318111 1.15997880 6.35536812
H 2.58136576 14.48046949 5.60075283
H 3.55325504 5.14738230 5.58827806
H 2.65059862 6.40360520 5.58342101
H 5.22360812 2.74274275 1.11535122
H 5.67295629 1.47250964 1.86973863
H 5.63594349 1.44040702 4.73618326
H 4.29645594 1.42429941 5.52244596
H 1.80193727 4.83977450 8.59488114
H 1.82024556 4.85351756 7.04837986
H 1.34656407 3.52447748 3.37824890
H 1.79462490 4.79441342 4.14522576
H 2.17767511 5.07078564 1.89930492
H 3.51909193 5.09090069 1.13206979
H 3.52680562 1.19441566 1.06619525
H 2.18977253 1.19226831 0.29252195
H 7.42774557 1.16255536 3.32456459
H 6.53251509 14.50136095 3.32563956
H 6.57656848 14.43144468 7.48360136
H 6.02921696 1.12212137 6.89085245
H 7.43188237 5.06858872 7.86570800
H 6.08497987 5.04315136 8.62801910
H 1.33563549 2.74062191 7.82595874
H 1.77182367 1.47211107 8.59267161
H 9.11267204 2.73792293 3.36698185
H 9.55813945 1.47107625 4.13487520
H 13.44475914 4.85876841 0.30832793
H 13.45692914 4.83628671 1.85423618
H 15.18795108 5.06866950 3.35902307
H 13.84156482 5.07771893 4.11631674
H 12.93561674 3.53511769 5.56290957
H 12.06664570 4.81471509 5.57572104
H 10.37714800 14.48396367 5.58797163
H 9.94798320 1.14124934 6.37809320
H 9.93831508 5.14172017 6.38641293
H 10.37260876 6.40493596 5.60765838
H 13.42686388 1.47160036 0.27766202
H 12.98266515 2.73966136 1.04342331
H 13.39464442 1.44069878 4.76376437
H 12.06404908 1.41956392 5.55255638
H 9.12567374 3.54775662 7.84908497
H 9.57559924 4.79707989 8.63799722
H 8.19793349 4.85926523 3.36761521
H 9.53178300 4.86012170 4.14570266
H 11.28798603 5.06500183 1.10790284
H 9.95361174 5.07276222 1.89174548
H 9.94813406 1.20210446 1.88751375
H 11.27444638 1.20235239 1.09154966
H 13.82002444 1.20059736 2.51574081
H 15.15498811 1.18533786 3.29875500
H 15.15866513 1.19570348 7.79056534
H 13.82025606 1.18268799 7.01660569
H 13.83610016 5.05808216 7.02501092
H 15.18435084 5.07598873 7.78518214
H 8.21239148 1.41624540 7.81293487
H 9.52667989 1.42855804 8.63267051
H 0.39488276 1.42294656 12.26773709
H 1.73069986 1.42159586 11.48398617
H 4.29337890 4.75881592 10.07219224
H 5.18571080 3.49426586 10.04816213
H 6.06275587 5.09234066 11.51557595
H 6.51386594 6.35620384 12.28737247
H 5.23789710 3.51532748 14.50765490
H 5.68052251 4.78666275 13.75054776
H 3.52966150 1.20687183 14.48229665
H 2.17772239 1.21664758 13.72643831
H 2.19481192 5.07677488 13.76822221
H 3.54017009 5.06527433 14.52795045
H 5.72943575 1.36823957 10.78396947
H 5.69206639 1.33729934 9.23958658
H 5.68431235 1.40809070 15.27999774
H 5.71057841 1.40363986 13.73210841
H 1.78936977 4.84030347 17.57473501
H 1.79989818 4.85116555 16.02724855
H 0.41338026 4.81155686 12.32459974
H 1.28784551 3.53810754 12.30067418
H 2.16400221 5.09748454 10.87041370
H 2.61073359 6.35918882 10.10335211
H 2.62557337 14.47014695 10.03219296
H 3.53911251 1.10950743 10.04239330
H 6.56186784 14.46137586 12.27104804
H 7.46491774 1.11980790 12.27882660
H 6.46050186 14.48227359 16.81443963
H 6.02588182 1.16015645 17.56311065
H 6.05954532 5.06242990 15.99831096
H 7.39662165 5.07657844 16.77209104
H 1.79323234 1.48769842 15.98248171
H 1.33379179 2.73502459 16.76821398
H 9.56488756 8.75776783 11.48957958
H 9.12647933 10.02507049 12.25801637
H 13.45399570 12.08280112 10.91204385
H 12.99224780 10.84016869 10.11389365
H 13.82982535 12.40034464 13.14833865
H 14.26470071 13.66125556 12.36566869
H 12.04606146 12.08779896 14.55919487
H 12.93413693 10.82376066 14.57452447
H 9.89453656 8.48949372 13.77998125
H 9.86005994 8.49583792 15.32998538
H 9.92405015 12.41418426 13.73376799
H 10.37437326 13.66302284 14.52691736
H 13.40622375 8.73157742 9.28521423
H 12.06243974 8.73871521 10.04204625
H 12.03291136 8.71573846 14.59840112
H 13.37971977 8.72331656 15.36441955
H 9.52666810 12.09323424 15.98136714
H 9.07978198 10.84131917 16.77349653
H 9.54443000 12.15407022 11.49818316
H 8.19460318 12.11292908 12.25702393
H 10.43393137 13.70728372 10.08187444
H 11.31867980 12.43895998 10.10311530
H 9.92093651 8.45047358 9.23905257
H 10.37611977 7.19083604 10.01987611
H 13.76958037 8.49505125 13.10361646
H 13.78477711 8.49371090 11.55537038
H 13.83681272 8.49925182 17.60770261
H 15.16470982 8.51091343 16.81416734
H 13.78223707 12.37451275 16.03664726
H 13.79391611 12.38644735 17.58142892
H 9.50212054 8.73313068 17.58939168
H 8.14510005 8.73599109 16.84315541
H 1.75057055 8.73380177 13.11721672
H 0.39875286 8.74731024 12.36217442
H 5.52425344 11.99595925 9.18037436
H 4.21699630 12.11340730 9.98045285
H 6.00421081 12.35306635 11.52831429
H 6.02344946 12.36689250 13.07516899
H 4.30603516 12.15643109 14.57156919
H 5.64036081 12.13498554 15.35131743
H 2.65479615 7.18634198 14.55693555
H 3.54145197 8.45109002 14.54560742
H 2.61237025 13.71469760 14.50660293
H 2.18019940 12.44444881 13.73844581
H 5.12485988 9.95378881 10.09312841
H 4.24342136 8.69477472 10.10537745
H 5.22521748 10.02656574 14.53055900
H 5.69116986 8.76914346 13.75879553
H 1.75511369 12.16980377 15.98421339
H 0.41727829 12.14341439 16.76087475
H 0.43497371 12.11145847 12.31086457
H 1.32247529 10.84867958 12.30327239
H 2.11294526 12.35424234 9.25953534
H 2.14901779 12.36578472 10.80780374
H 2.11077658 8.46699802 9.31157012
H 2.10960956 8.47861220 10.86102053
H 6.07608812 8.45392101 11.53598009
H 7.43412225 8.46866620 12.27924275
H 6.02437945 8.44981246 16.01569271
H 6.45950444 7.18117245 16.78348431
H 7.38482823 12.38010890 16.82748412
H 6.05148481 12.36779136 17.61439162
H 1.78203305 8.77313613 15.99840666
H 1.34102997 10.04173855 16.76279247
