381

O 9.11744084 1.76754796 12.30520183
O 13.00263757 4.48499767 10.06760665
O 14.27045534 5.41624734 12.30248409
O 12.98169232 4.50560623 14.54749558
O 10.38724708 0.83405956 14.55499655
O 10.38540862 5.39623967 14.54340813
O 12.97080512 1.74414625 10.06907192
O 12.95981082 1.76571561 14.58350868
O 9.09821112 4.50744473 16.79210646
O 9.09834885 4.50845314 12.29460714
O 10.42001962 5.42431438 10.07716882
O 10.37829848 0.85702381 10.04476122
O 14.26528891 0.88921384 12.32917049
O 14.27898531 0.81822782 16.81086932
O 14.23830812 5.43736177 16.81304451
O 9.08056204 1.76334085 16.79356095
O 9.08639991 9.03619286 3.34143764
O 12.96897017 11.81413187 1.08905482
O 14.24319697 12.71490668 3.35143627
O 12.98088607 11.79054883 5.60608380
O 10.37510393 8.15847229 5.59879308
O 10.38717553 12.69649580 5.58232579
O 12.97339817 9.07103430 1.10365797
O 12.96580568 9.04820459 5.59801081
O 9.08937896 11.82198661 7.83045652
O 9.10411361 11.77250776 3.33319314
O 10.37936077 12.72507882 1.09007723
O 10.37696798 8.18125379 1.08456473
O 14.24389055 8.13108479 3.33986805
O 14.27879442 8.15612222 7.83038751
O 14.28111805 12.71463611 7.84471591
O 9.08007621 9.08401480 7.83367361
O 1.28922972 9.05736400 3.31739919
O 5.21736722 11.80918032 1.12338501
O 6.51544562 12.67911212 3.34893452
O 5.20400501 11.79051973 5.58969131
O 2.59704277 8.14345023 5.56259913
O 2.61749887 12.70274819 5.58413098
O 5.23749476 9.05683161 1.09955908
O 5.18709262 9.04937093 5.58654363
O 1.33629134 11.80216717 7.83685909
O 1.27424951 11.79020336 3.34238207
O 2.60557847 12.80303905 1.25475251
O 2.63148706 8.16367136 1.09029443
O 6.49837293 8.12780723 3.35641297
O 6.50421798 8.16269314 7.81697927
O 6.49110647 12.69839591 7.82986515
O 1.33772102 9.06157736 7.82072207
O 1.18963298 1.70134714 3.34687534
O 5.17165202 4.48871949 1.06466181
O 6.46676594 5.38996162 3.31316930
O 5.20145433 4.50332837 5.58382081
O 2.60462444 0.80962620 5.59275266
O 2.60988076 5.40811702 5.57723217
O 5.16261369 1.80816481 1.02403203
O 5.17883814 1.75487991 5.55614277
O 1.32233731 4.51339828 7.83693703
O 1.30304927 4.52005316 3.30904446
O 2.62762355 5.43857565 1.06309744
O 6.46474382 0.84373912 3.31849805
O 6.47038441 0.83635276 7.78283138
O 6.52624049 5.41961209 7.81122964
O 1.33708321 1.76955355 7.83788817
O 9.06695963 1.76179473 3.35103367
O 12.94893527 4.50558268 1.09434150
O 14.25714841 5.40545883 3.32962381
O 12.95967206 4.51069531 5.57378986
O 10.37641214 0.84705182 5.59914429
O 10.36179973 5.41923474 5.57170270
O 12.92646107 1.76467031 1.08607746
O 12.97088341 1.75467031 5.60236016
O 9.11077185 4.49785936 7.84425520
O 9.07267122 4.50541589 3.32857030
O 10.37211195 5.43637569 1.08971759
O 10.34620377 0.85910060 1.10281246
O 14.20474228 0.83504585 3.35342660
O 14.28015429 0.85069786 7.82871795
O 14.25854677 5.41025854 7.81263289
O 9.05496457 1.75357693 7.82540401
O 1.32232066 1.77748019 12.33064915
O 5.21784586 4.49662336 10.04779993
O 6.50707536 5.41597056 12.29029788
O 5.20951637 4.50591098 14.54311523
O 2.62632819 0.87473955 14.54811631
O 2.62393591 5.43318670 14.55032223
O 5.23612282 1.75462708 10.04120014
O 5.18389431 1.76472996 14.49721551
O 1.27838069 4.53966948 16.75798288
O 1.32754376 4.51830651 12.31436302
O 2.62981206 5.42354922 10.07852789
O 2.63896573 0.85943286 10.08940539
O 6.52585498 0.87276231 12.29674334
O 6.52367727 0.83360838 16.72516820
O 6.50901355 5.41081751 16.76402323
O 1.39185305 1.76284773 16.75788738
O 9.08719362 9.03925653 12.29909777
O 12.99485787 11.80822026 10.08361790
O 14.28967697 12.74279218 12.32838062
O 12.98301072 11.80412531 14.55418818
O 10.37766674 8.13578306 14.54641632
O 10.39048568 12.68838720 14.53050626
O 12.97727549 9.07011440 10.06579381
O 12.97056224 9.06202953 14.53014697
O 9.09694853 11.81449693 16.78503998
O 9.09014270 11.77804603 12.29418221
O 10.40177295 12.71823150 10.07124182
O 10.39619459 8.16683344 10.05030189
O 14.26707843 8.15233589 12.29712889
O 14.26390316 8.17784305 16.78892454
O 14.28874452 12.69343662 16.78646718
O 9.08970852 9.06998274 16.78371140
O 1.31733937 9.06718447 12.31003043
O 5.21169060 11.82296087 10.08915914
O 6.50700738 12.72953504 12.32869659
O 5.20202244 11.78301490 14.55567466
O 2.59162920 8.16365021 14.55872021
O 2.61706072 12.72570313 14.55856239
O 5.20533668 9.08431199 10.04609727
O 5.18531351 9.04813562 14.53046177
O 1.38053795 11.85792051 16.83191489
O 1.32743207 11.80638873 12.32088068
O 2.61776146 12.72032277 10.08313640
O 2.62567430 8.16387835 10.06858579
O 6.49024097 8.15965778 12.27933465
O 6.50159151 8.15979167 16.77381095
O 6.49751849 12.68820748 16.78830312
O 1.32422971 9.09009372 16.81890028
H 9.12457889 2.73067473 12.28618952
H 9.56687813 1.47075919 11.50658023
H 13.44715278 4.78412143 9.26687440
H 13.00144049 3.52201090 10.04275717
H 13.79995312 5.08540612 13.07471614
H 13.81395982 5.07152250 11.52677594
H 13.41867734 4.82070820 15.34535239
H 12.98911038 3.54358759 14.58865646
H 10.37323633 14.47380595 14.52220070
H 9.93996567 1.14510495 13.76065597
H 11.29197161 5.07286521 14.52131081
H 9.95205333 5.07565156 13.74496438
H 13.41487646 1.41306654 9.28079047
H 12.06391136 1.42127858 10.03316018
H 12.05639776 1.43017065 14.59942366
H 13.39992298 1.42131233 15.36610743
H 9.09881131 3.54412019 16.78181095
H 9.55604072 4.79083404 15.99367468
H 9.53771990 4.85004883 11.50836020
H 8.19284130 4.83642025 12.27311709
H 10.44064673 6.38701353 10.06193977
H 11.33442640 5.12315976 10.07561092
H 9.90222277 1.14433774 9.25776304
H 10.36958615 14.49609302 10.03967335
H 13.78988734 1.19918372 11.55048146
H 13.78799557 1.21468808 13.09919768
H 15.19028279 1.11253101 16.81557898
H 14.30217092 14.45633133 16.80274491
H 14.23233939 6.40026877 16.82807363
H 13.77703510 5.13911167 17.60516842
H 9.52742473 1.42587294 16.01092215
H 8.17595048 1.43086724 16.75336388
H 9.52073004 8.71616009 4.13934399
H 8.18336666 8.70127115 3.36304903
H 13.43861284 12.09710110 0.29835180
H 12.97669302 10.85097012 1.08248144
H 13.78723489 12.41839552 2.55717063
H 14.22212865 13.68010063 3.33689546
H 13.44864453 12.12725798 6.37762775
H 13.44250219 12.12809083 4.83119929
H 9.94136796 8.50069239 6.38751841
H 11.28294801 8.48024815 5.61969582
H 11.29050228 12.36326053 5.57058133
H 9.95711947 12.36083598 4.78884786
H 13.43843528 8.72727089 1.87427984
H 13.43777637 8.74539343 0.32599015
H 13.43414558 8.75229750 6.38613287
H 12.98515120 10.01110042 5.61409428
H 9.55593707 12.14307422 7.05104444
H 9.56882343 12.14871523 8.59867479
H 9.10838871 10.80959513 3.30672040
H 9.55164251 12.07957600 2.53791386
H 10.38943460 13.68836979 1.10410810
H 11.29732318 12.43513381 1.08682709
H 11.28331440 8.50477831 1.11355531
H 9.94183694 8.48968367 1.88676986
H 13.79431328 8.43143707 4.13664073
H 14.23325772 7.16707589 3.35908051
H 15.18573516 8.47933580 7.84986236
H 13.84441892 8.48903594 8.62263412
H 14.30549537 13.67791423 7.83710639
H 15.19575186 12.41276437 7.83702230
H 8.16405013 8.78565231 7.82170143
H 9.05991633 10.04704584 7.83101017
H 0.38949915 8.71345893 3.30005372
H 1.73365698 8.73053300 2.52824374
H 4.32237326 12.14665774 1.18096678
H 5.67702191 12.12774306 1.91032442
H 7.42050289 12.35029443 3.36721714
H 6.08209240 12.35556217 4.14574487
H 4.30275735 12.13016428 5.60061365
H 5.63394783 12.11330222 6.38892870
H 2.13437207 8.43805636 4.77183105
H 2.59131148 7.17964521 5.54560722
H 2.14231604 12.40492344 4.80385192
H 2.60045446 13.66838901 5.57063371
H 5.68314545 8.75264277 1.89767087
H 5.24470781 10.01845988 1.12738092
H 5.16992476 10.01244055 5.58574231
H 4.27034966 8.75433331 5.57840450
H 1.34836513 10.83917832 7.81299213
H 1.79319687 12.10232590 7.04379426
H 0.35800316 12.09289138 3.34643197
H 1.25422664 10.82609787 3.33696592
H 2.65387410 13.73212850 1.42385575
H 2.11500196 12.42775315 2.00407017
H 3.54736583 8.46046433 1.09744888
H 2.65534407 7.19943422 1.08008611
H 6.03257014 8.42383301 4.14544316
H 6.47149822 7.16458504 3.35864674
H 6.03110771 8.49357365 8.58797475
H 6.02520356 8.47901580 7.04316252
H 6.06514017 12.37900752 8.63225713
H 7.40067119 12.38272729 7.84994862
H 1.79358043 8.72321982 7.04254603
H 1.81251906 8.73164226 8.59070969
H 1.26593898 2.65526715 3.32243139
H 1.69746783 1.41251954 4.10589852
H 5.64429385 4.78701992 0.28288216
H 5.17260785 3.51916441 1.03923499
H 6.02872277 5.05689028 2.52193659
H 7.37198816 5.06315861 3.29076741
H 5.65823987 4.82574924 4.79984128
H 5.68689108 4.83517390 6.34599428
H 3.50217600 1.15800798 5.58746904
H 2.17790425 1.15714994 6.38193772
H 3.51325521 5.07576098 5.60078456
H 2.17271135 5.08067646 6.36982023
H 5.64332627 1.45318777 0.27579000
H 5.58933276 1.45737644 1.80661919
H 5.19495122 2.71731271 5.54503811
H 5.62921932 1.45936482 4.75688293
H 0.41610807 4.83857520 7.84740288
H 1.75248954 4.85239425 8.62836998
H 1.77435858 4.83052791 4.08764220
H 1.78624578 4.84553406 2.54451714
H 3.52501871 5.08289159 1.04105200
H 2.17944152 5.11334448 0.27837479
H 6.49908346 14.48552116 3.32852616
H 7.37681018 1.14908484 3.32688344
H 6.01300958 1.13294146 6.98774388
H 6.46260965 14.47561599 7.77244781
H 7.44230923 5.12327212 7.82642795
H 6.54340567 6.38235572 7.81636630
H 1.79052849 1.47289888 8.63303807
H 1.34593003 2.73235758 7.85589712
H 9.53069559 1.46470363 4.14027184
H 9.07842312 2.72458554 3.36778862
H 12.91805997 3.54285979 1.08796208
H 12.03561759 4.81238106 1.09826843
H 13.81910993 5.07056020 2.54040051
H 15.16534135 5.08090647 3.30624967
H 13.39603012 4.82892733 4.77626584
H 12.05469541 4.83797018 5.54838858
H 11.29189881 1.14660734 5.60247416
H 10.40123417 14.48696797 5.58958516
H 9.92427479 5.10877356 6.37110940
H 10.35084283 6.38166080 5.60649915
H 12.02137108 1.43459444 1.06897302
H 13.36797406 1.41980895 0.30573410
H 13.40874440 1.45232097 4.79737915
H 12.97463999 2.71667507 5.57328475
H 9.10124376 3.53506947 7.86132559
H 9.57735351 4.78923345 8.63402841
H 9.54551623 4.83910534 2.55938164
H 9.53133218 4.84356198 4.10494723
H 9.91846540 5.13341693 0.29591097
H 10.36135199 6.39880374 1.06704246
H 9.87275267 1.18835976 0.33102156
H 9.88331881 1.18950449 1.88079898
H 13.77540523 1.16941574 2.56150020
H 15.11777225 1.16477947 3.33886065
H 15.18202815 1.18812477 7.81325506
H 13.84574089 1.18067822 7.03394478
H 14.24995648 6.37286838 7.79778253
H 13.79916385 5.11626200 7.01832546
H 8.14864842 1.42926988 7.78954554
H 9.49806435 1.42773381 7.03451359
H 1.30388852 2.74081332 12.32073992
H 0.40395714 1.48592492 12.32667807
H 5.67428030 4.80185863 9.25657799
H 5.23586674 3.53385551 10.02259616
H 6.05028019 5.10761366 11.50031170
H 6.48441320 6.37836329 12.26416309
H 5.67343928 4.83940168 13.76800776
H 5.68980886 4.83128014 15.31344981
H 3.53559636 1.19734000 14.49953083
H 2.17371045 1.20527803 13.76237500
H 2.17854485 5.10247860 15.33702082
H 3.52800138 5.10092261 14.57353710
H 4.32968417 1.42973944 10.04311112
H 5.64919551 1.41728808 9.23835989
H 5.21050566 2.72790437 14.50409103
H 5.66331163 1.47983594 13.71095470
H 1.25293581 3.58196767 16.73845964
H 0.36317890 4.84374857 16.77713433
H 0.42389116 4.85206190 12.32569439
H 1.76038759 4.85449385 13.10600318
H 3.53109087 5.08462146 10.08511459
H 2.19815469 5.08941363 10.87174870
H 2.17688624 1.15958765 10.87810231
H 2.61755823 14.49879799 10.10532182
H 6.10175528 1.18699800 11.49071963
H 7.43256539 1.19787757 12.28123548
H 6.49926461 14.47410950 16.72267879
H 6.05217511 1.12953869 15.94156128
H 6.52724188 6.37322246 16.77541912
H 7.42550377 5.11528028 16.77798772
H 1.94584801 1.57372123 17.50000191
H 1.86075685 1.43923932 15.97223617
H 9.52101120 8.70876948 13.09307727
H 8.18281469 8.70868206 12.31642797
H 13.46328290 12.14764778 10.85265046
H 13.46085114 12.13770319 9.30704283
H 14.27273793 13.70539048 12.34904401
H 13.82087351 12.43948600 13.11288147
H 12.95772127 10.84120849 14.53799605
H 12.06605963 12.10082639 14.54914783
H 9.92698117 8.44115909 15.34081681
H 10.36700267 7.17294797 14.57066377
H 9.91945476 12.35309831 13.76007588
H 9.91652144 12.37204944 15.30726219
H 12.05918783 8.77783137 10.05567140
H 12.96145629 10.03316685 10.07352140
H 12.06850171 8.72499911 14.51742423
H 13.40195641 8.73059653 13.73489031
H 9.53295567 12.15200247 17.57496397
H 8.18908538 12.13443962 16.80994942
H 9.06040152 10.81509011 12.29171499
H 8.17840697 12.08689706 12.30050169
H 11.30754761 12.39280619 10.09778447
H 9.95896889 12.37574852 10.85460081
H 9.92239063 8.48079044 10.82766490
H 9.91687410 8.49486052 9.28145496
H 13.81069740 8.45493488 11.50411505
H 14.25556241 7.18926161 12.27412979
H 13.82982439 8.49956625 15.99159705
H 15.16572301 8.51373516 16.77421990
H 15.19585945 12.37480041 16.76938997
H 13.85379590 12.36410474 15.99168941
H 9.10483822 10.03299598 16.79636907
H 9.54377996 8.77888784 17.58202863
H 1.74478936 8.73875198 13.10830784
H 0.41423556 8.73202707 12.32087076
H 5.64393827 12.15462684 10.88333892
H 4.30810976 12.15585538 10.10413256
H 6.04968975 12.43122974 13.12126985
H 6.50767230 13.69235649 12.34654903
H 5.17590559 10.81965889 14.53783019
H 4.28907905 12.08663555 14.55209318
H 2.14614080 8.46258775 15.35780813
H 2.59062231 7.20015068 14.57818939
H 2.15680974 12.41559979 13.77028359
H 2.61621276 13.68732250 14.51941984
H 4.28981313 8.78456943 10.05511323
H 5.18452848 10.04732221 10.05676278
H 4.28108425 8.71808700 14.56129630
H 5.62768803 8.72277333 15.32188693
H 1.84599711 12.17875000 16.05070343
H 1.82392008 12.22171809 17.59853886
H 0.41387494 12.11265648 12.32600037
H 1.29969322 10.84321375 12.31864571
H 2.15657178 12.38816065 9.30530214
H 2.14627853 12.38173023 10.85152921
H 2.62233705 7.20080286 10.09466351
H 2.16421139 8.46249648 10.85912503
H 6.02918235 8.50042885 11.50489638
H 6.01355383 8.48245089 13.05084254
H 6.07758294 8.48334027 17.57548475
H 7.40482302 8.49413459 16.78877131
H 6.02985854 12.37303862 17.56734917
H 6.03026831 12.34099363 16.02097843
H 1.35822911 10.05007553 16.84695973
H 1.78777048 8.77626354 17.60392554
