381

O 9.05702744 1.77261505 12.28160269
O 12.98713406 4.50236597 10.08644954
O 14.28035614 5.41071093 12.31286567
O 12.97072492 4.48697581 14.54032541
O 10.36289350 0.85863795 14.50579593
O 10.39816972 5.42547367 14.56337772
O 12.97506278 1.76215609 10.09015317
O 12.93907276 1.75680681 14.54614442
O 9.08906927 4.51643398 16.80693169
O 9.09480897 4.51499685 12.32316241
O 10.39786531 5.41941526 10.08054317
O 10.38746383 0.84787765 10.06980289
O 14.26172963 0.84494306 12.32348161
O 14.22127850 0.85071072 16.80157228
O 14.24901252 5.39777606 16.77708443
O 9.09199728 1.76856270 16.77923694
O 9.09752396 9.05062232 3.34816092
O 12.96625450 11.78219394 1.09115780
O 14.25887992 12.69537915 3.33602989
O 12.97972726 11.79538022 5.59522561
O 10.40119700 8.13526078 5.57106519
O 10.39445525 12.70514901 5.58440632
O 12.98458316 9.04140756 1.10131400
O 12.98827764 9.05719435 5.58115161
O 9.09797016 11.78840171 7.81404460
O 9.12219344 11.79012335 3.31652897
O 10.38070251 12.69284997 1.08927724
O 10.38792414 8.14579592 1.11084837
O 14.30101492 8.14968085 3.34312385
O 14.27237631 8.15977748 7.82464111
O 14.26443033 12.72348795 7.83509691
O 9.09507439 9.04848972 7.79503767
O 1.35025874 9.07819492 3.36346139
O 5.17715316 11.79813150 1.05258661
O 6.49184263 12.71728853 3.33017175
O 5.21482918 11.83674857 5.52342237
O 2.62975943 8.17314279 5.60898647
O 2.62807930 12.70828478 5.56870694
O 5.19517451 9.06014895 1.06222075
O 5.19388054 9.11063550 5.56579484
O 1.31392575 11.81447487 7.80863112
O 1.32701215 11.82072282 3.33616978
O 2.60674058 12.70446503 1.08194437
O 2.60808760 8.13884945 1.11312143
O 6.49564778 8.20340824 3.31903614
O 6.47929203 8.17451371 7.79671283
O 6.53033044 12.72697934 7.78772730
O 1.31600434 9.06830718 7.83017041
O 1.29241149 1.75549637 3.35012960
O 5.20180481 4.48771226 1.10716219
O 6.49405747 5.44592632 3.36305237
O 5.19030542 4.58119995 5.64638739
O 2.65516180 0.85524407 5.52176523
O 2.58900670 5.44071166 5.56991867
O 5.14905497 1.80867867 1.12152229
O 5.15881486 1.80018528 5.50551800
O 1.32030975 4.51668825 7.81961460
O 1.32130742 4.49811527 3.32237926
O 2.61532081 5.38999765 1.06710278
O 2.53538914 0.81566912 1.07748400
O 6.49606103 0.85419506 7.79837285
O 6.51036303 5.43245322 7.86418684
O 1.36611316 1.78091823 7.81862007
O 9.08431219 1.79679213 3.36683176
O 12.97317850 4.51624718 1.09580048
O 14.27341083 5.41037103 3.32556623
O 12.98732275 4.51434568 5.58142078
O 10.41559976 0.81808616 5.63243048
O 10.38530927 5.40003081 5.55093936
O 12.96659412 1.77609774 1.10628312
O 12.99396034 1.76582210 5.62279860
O 9.09264092 4.53162840 7.83474845
O 9.08543995 4.47758254 3.33978941
O 10.38507889 5.40326490 1.11007658
O 10.37810084 0.80675931 1.06687395
O 14.24727196 0.84646212 3.36203326
O 14.29206744 0.86453903 7.86474225
O 14.27407508 5.41349139 7.82728305
O 9.09706411 1.79053284 7.85594114
O 1.30978078 1.76047086 12.31846878
O 5.19595097 4.50456776 10.08457809
O 6.50241497 5.42918481 12.31231466
O 5.21684550 4.49381626 14.54889724
O 2.59023175 0.84045600 14.57334666
O 2.63071413 5.41179911 14.53970030
O 5.20912735 1.77077586 10.06483945
O 5.19891814 1.74354707 14.55666677
O 1.30802457 4.49826913 16.77279794
O 1.32450772 4.50400928 12.32080822
O 2.60709412 5.40558088 10.07080159
O 2.61816528 0.86467096 10.07716069
O 6.47381915 0.85589599 12.30057343
O 6.49717009 0.84246529 16.78361293
O 6.47967573 5.38529409 16.80663107
O 1.26412055 1.75931280 16.78416728
O 9.11452538 9.06486714 12.31371250
O 12.96262655 11.84218655 10.07626376
O 14.25243212 12.70801613 12.33643988
O 12.97590429 11.79407582 14.58405690
O 10.38311814 8.15441371 14.56521193
O 10.38238591 12.70823270 14.54208302
O 12.97355187 9.09131144 10.04748940
O 12.97299277 9.05223615 14.55644016
O 9.09978476 11.77252185 16.78525700
O 9.07422533 11.80120034 12.31372022
O 10.35969264 12.71915762 10.07255049
O 10.38876992 8.16159237 10.05241346
O 14.26401888 8.15775447 12.29566371
O 14.25921597 8.13294267 16.79727731
O 14.28867404 12.71035532 16.81656651
O 9.07503647 9.02803285 16.81169922
O 1.32952661 9.03207680 12.30066180
O 5.20901689 11.84317766 10.04963206
O 6.50078294 12.72015618 12.29196320
O 5.20621050 11.80955162 14.52134485
O 2.62816450 8.15494290 14.55501829
O 2.61593578 12.70493201 14.52768625
O 5.20869021 9.09022736 10.05820952
O 5.20981574 9.07304999 14.52370965
O 1.34316157 11.78284618 16.77706243
O 1.30066476 11.77862201 12.29181029
O 2.60803528 12.71535323 10.05949729
O 2.63209291 8.14454343 10.05153259
O 6.52200870 8.17165953 12.28587018
O 6.47619755 8.12340190 16.77503740
O 6.51550391 12.68367787 16.75792594
O 1.32041554 9.04100234 16.80703662
H 9.49773436 1.44143532 11.49224035
H 8.15349698 1.43996030 12.26363765
H 13.44901019 4.82865547 9.30744212
H 13.46378776 4.83832474 10.85383547
H 14.29467842 6.37360173 12.31140204
H 15.19885985 5.11895781 12.31985911
H 13.43290560 4.78663373 13.75053930
H 12.97000773 3.52343575 14.51825639
H 10.34902348 14.49848146 14.50083796
H 9.89446172 1.15132714 13.71680595
H 9.95423437 5.09285823 13.77632169
H 11.30012149 5.08846730 14.53637405
H 13.42982449 1.46205100 10.88490840
H 12.98413661 2.72519164 10.11108131
H 12.03218835 1.43287810 14.50621368
H 13.38977751 1.41786394 13.76559525
H 9.55699069 4.83989579 17.58415661
H 9.56131829 4.85044328 16.03793434
H 9.05840141 3.55268901 12.31272263
H 8.18223089 4.82252732 12.31694597
H 9.95851031 5.09281919 10.87292261
H 11.30266446 5.09097921 10.10573103
H 11.30215262 1.14974688 10.07749215
H 10.40811531 14.48691888 10.06757013
H 15.17682915 1.14577517 12.32621037
H 14.28484161 14.48405196 12.32982074
H 13.74458371 1.17316330 16.02973940
H 13.76164128 1.18638290 17.57912040
H 13.81858130 5.05816003 15.98476846
H 15.15634738 5.07536328 16.75926490
H 9.54054819 1.48259845 15.97803348
H 9.10089465 2.73118652 16.77525024
H 9.08935333 10.01312516 3.33849723
H 8.17670253 8.76722856 3.33273725
H 12.98441901 10.81941609 1.06882286
H 13.43869837 12.08755317 0.30939863
H 13.78680258 12.36229856 2.56543989
H 13.79704224 12.36270911 4.11255303
H 12.07734678 12.13192417 5.61229120
H 13.41482861 12.13064730 6.38631907
H 10.39348202 7.17176491 5.54356899
H 9.93889712 8.43582502 4.78130383
H 10.38933136 13.67048690 5.57912917
H 9.95140476 12.41770936 4.78059064
H 13.44186807 8.70309316 0.32379671
H 13.46759478 8.72230797 1.87057071
H 12.07508874 8.75111641 5.57501895
H 12.95944567 10.01998660 5.58765758
H 9.56265319 12.09242079 7.02626011
H 9.11464225 10.82541401 7.79008080
H 8.21993476 12.11116036 3.29233860
H 9.55596791 12.12014408 2.51922144
H 11.29665806 12.39490871 1.08348870
H 10.40154263 13.65833359 1.07662664
H 9.95747475 8.48081762 1.90430959
H 11.29547049 8.46752050 1.12675277
H 13.85702883 8.47904019 4.13148771
H 15.20368083 8.48375149 3.37221447
H 13.80487597 8.48454630 7.04720973
H 13.79674930 8.49608880 8.59202846
H 13.80632349 12.42974792 8.63017207
H 14.26126045 13.68624847 7.85782297
H 8.18659903 8.73189999 7.77020779
H 9.53239810 8.70873058 7.00621435
H 1.35475760 10.04092289 3.37148967
H 1.80434114 8.78788306 4.16155514
H 4.27318532 12.13550076 1.06739445
H 5.60581632 12.12696317 1.84382976
H 6.02426842 12.43673914 4.13237646
H 6.52736989 13.66120393 3.34233013
H 5.19755257 10.87142144 5.53433634
H 4.29444434 12.12444596 5.55007824
H 2.60254338 7.21012368 5.60648328
H 2.16124077 8.46358051 6.39924834
H 2.15265644 12.38286803 4.79550603
H 2.15276607 12.38876346 6.34364757
H 5.20118951 10.02183673 1.02510503
H 5.64571466 8.74605089 0.27046206
H 5.63685514 8.77247587 6.35202477
H 4.29289364 8.76880766 5.59558652
H 0.40919460 12.14464133 7.83763346
H 1.75143104 12.13965654 8.60271244
H 1.75614454 12.14022337 2.53452406
H 0.41735266 12.13723687 3.31147956
H 2.15815069 12.39323192 0.28813729
H 2.57258456 13.66900254 1.05807520
H 3.51050435 8.47426758 1.11164355
H 2.18928962 8.47270139 1.91331872
H 6.02516688 8.51312211 2.53778885
H 6.01662648 8.53362271 4.08563860
H 6.47499121 7.21243512 7.83716421
H 6.03916947 8.48381911 8.59550917
H 6.09142520 12.39130106 7.00094354
H 7.43182466 12.38503181 7.77244403
H 0.40055895 8.76646943 7.83037501
H 1.28987368 10.03084382 7.82326892
H 0.37511113 1.46004354 3.35874113
H 1.27700529 2.71869644 3.33964859
H 5.19788310 3.51836765 1.12968162
H 5.65593455 4.78618875 1.89943900
H 6.48916352 6.40769635 3.35400905
H 6.03751776 5.17798243 4.16447208
H 5.65992331 4.87209358 6.43749105
H 5.18810625 3.62345757 5.66492243
H 2.15425314 1.14829927 4.74968385
H 2.62701489 14.49427765 5.52596201
H 3.50033105 5.13089963 5.57091442
H 2.17246453 5.10268238 4.76963691
H 5.61739838 1.45231369 0.36630178
H 4.26074377 1.45378837 1.07963479
H 5.53150695 1.65941933 4.64834223
H 4.25375193 1.44993186 5.47721409
H 1.74501684 4.85449848 7.02411955
H 0.41146673 4.83783351 7.80460083
H 1.75399811 4.81641048 2.52263107
H 0.41805525 4.83340909 3.30208491
H 2.64105228 6.35194590 1.08416647
H 3.53100281 5.08751695 1.08390431
H 2.07405902 1.16470925 0.30799210
H 2.07955935 1.15664364 1.85240617
H 6.49998443 14.49254597 7.77188193
H 6.05965774 1.14936296 6.99903433
H 6.07638446 5.09685572 8.65602314
H 7.41822159 5.10858708 7.88055438
H 1.80664207 1.48300468 7.01883125
H 1.36119962 2.74437186 7.79248878
H 9.50588869 1.43165119 2.58887705
H 9.55463869 1.44320851 4.12171099
H 13.39864005 4.83419067 0.29256487
H 12.06509358 4.83824696 1.08103302
H 14.26994500 6.37331326 3.31360857
H 13.80968635 5.12078043 2.53181515
H 12.07749036 4.82886491 5.54890489
H 13.42046537 4.83510277 4.78326468
H 11.31274344 1.16572648 5.64574077
H 9.97208079 1.16817092 6.41024331
H 9.91909494 5.08447417 6.33092379
H 9.91145477 5.05498721 4.78402716
H 12.98011099 2.73864007 1.12878193
H 13.41382296 1.47164105 1.90193011
H 13.45759078 1.47959623 6.41629857
H 13.00483617 2.72851099 5.62393260
H 9.10584498 3.56888910 7.85802478
H 9.55978083 4.82855396 8.62276179
H 8.17319453 4.77950330 3.33895653
H 9.06365735 3.50807320 3.33925197
H 10.37012881 6.36524209 1.14318057
H 9.92679616 5.08793996 1.89767147
H 9.94146988 1.15243674 0.28204082
H 11.27012238 1.16548366 1.06577500
H 13.79445094 1.13627916 4.16109391
H 14.23414998 14.48597033 3.36642927
H 15.19654403 1.19070796 7.88058137
H 13.85762008 1.19501100 8.65884693
H 14.25938456 6.37632395 7.81110416
H 13.81170145 5.11797600 7.03520631
H 8.19605885 1.45697489 7.86229745
H 9.52954542 1.44728163 8.64555449
H 1.77441616 1.46590869 11.52822622
H 1.32333284 2.72338590 12.30223708
H 5.17881641 3.54164763 10.08105477
H 4.27914622 4.80000679 10.07456154
H 6.02787594 5.09655154 11.54327797
H 6.04004801 5.09446453 13.08837421
H 5.66437828 4.78339402 15.35185501
H 5.21781941 3.53087437 14.56780851
H 2.13286306 1.17990469 13.79748964
H 2.10942233 1.16772901 15.34161553
H 3.54515547 5.10926356 14.54857900
H 2.65545048 6.37443758 14.54703105
H 5.67627906 1.43938156 9.29290679
H 5.67107073 1.43582790 10.84217066
H 4.29194296 1.42430072 14.59245093
H 5.64137891 1.41535549 15.34877435
H 1.78256637 4.81974433 17.54727393
H 1.78574375 4.82469917 16.00348834
H 1.78859891 4.83350315 11.54402950
H 1.80418682 4.83103954 13.09026739
H 2.60824908 6.36853107 10.04554649
H 2.15021472 5.11112916 9.27568128
H 3.52495903 1.18782077 10.06140133
H 2.19640546 1.19568854 9.27732721
H 6.02374970 1.15366432 13.09965680
H 6.47233767 14.49503269 12.32619006
H 7.40698576 1.15517013 16.79102149
H 6.53654966 14.48430955 16.78025653
H 7.38981606 5.07201704 16.82934161
H 6.04926923 5.05284140 17.60331249
H 0.34452122 1.47245504 16.78561669
H 1.25793676 2.72235484 16.78212456
H 9.57907632 8.73163725 13.08913076
H 9.58522520 8.74028446 11.53908058
H 13.39031872 12.15632663 10.88019734
H 12.05524061 12.16295148 10.09701281
H 13.82635995 12.37744182 13.13471717
H 15.15160639 12.36301480 12.33814219
H 12.98515077 10.83118450 14.59844815
H 13.43761052 12.09197360 15.37486166
H 10.37539573 7.19090006 14.58570706
H 9.92077527 8.44999501 15.35684953
H 9.94827654 12.37513107 15.33455367
H 11.28937961 12.38628208 14.57235364
H 12.06006243 8.78639766 10.05217365
H 12.94504313 10.05351477 10.05990227
H 12.06580529 8.72868623 14.53911310
H 13.40146744 8.73263927 13.75578792
H 9.55398201 12.07598668 17.57857998
H 9.10454792 10.80993751 16.81363911
H 9.54354584 12.10344211 13.09914889
H 9.09952002 10.83824065 12.33251815
H 9.88952988 12.38537370 10.84422211
H 9.90396491 12.38039887 9.29493595
H 10.38359058 7.19851508 10.04138472
H 9.92561624 8.45015703 9.25914243
H 15.17124286 8.48079545 12.28075874
H 13.83504671 8.49485472 11.50272124
H 13.80581019 8.44030602 16.00503877
H 14.24261324 7.16997414 16.76600886
H 15.20711067 12.42271853 16.80345600
H 14.29155348 13.67360433 16.81234327
H 9.50907483 8.69953828 17.60609235
H 8.17107988 8.69701389 16.82489056
H 1.79653834 8.71212941 13.07982323
H 1.80446156 8.69957994 11.53193461
H 5.67979040 12.16989422 10.82474753
H 5.68495608 12.16255410 9.27763970
H 6.05575887 12.38827664 13.07979543
H 7.40385743 12.38547885 12.32318112
H 5.64485641 12.13377656 15.31561116
H 4.30212467 12.14150038 14.54118070
H 2.19253223 8.47122861 15.35327318
H 3.52828305 8.49748414 14.56931239
H 2.15281407 12.40638294 13.73846866
H 2.58613036 13.66810675 14.52346144
H 5.21820231 10.05247673 10.07924242
H 5.67499145 8.79016578 10.84599282
H 5.21920542 10.03630292 14.50909481
H 5.66968172 8.77908341 13.73048408
H 1.79673896 12.07255007 15.97860062
H 1.34312515 10.81970699 16.76889002
H 1.76015817 12.08100151 11.50180032
H 1.32482536 10.81605321 12.27588294
H 2.62672624 13.67790933 10.07006372
H 3.52639227 12.42533621 10.05515039
H 2.18604678 8.48291804 9.26785134
H 3.53228828 8.48582423 10.03024121
H 6.53285584 7.20854890 12.29473173
H 7.44110516 8.45935023 12.29608922
H 6.45563386 7.16001715 16.76151546
H 6.03432555 8.42823989 15.97592630
H 6.07342093 12.36299491 17.54921961
H 7.41741429 12.34684866 16.78479101
H 0.41609066 8.71025621 16.81685058
H 1.74619555 8.71416552 17.60663620
