381

O 9.07381840 1.77567237 12.29969202
O 12.96174995 4.50013546 10.04903870
O 14.25591747 5.40838329 12.28307492
O 12.98788985 4.47975351 14.53505272
O 10.34573451 0.87263527 14.57003709
O 10.39962580 5.42303695 14.53951902
O 12.98605796 1.74762431 10.06790289
O 12.95236540 1.73677341 14.56896330
O 9.09131387 4.52554013 16.78114212
O 9.07699588 4.52276676 12.30481285
O 10.34848167 5.42526602 10.08207762
O 10.39545345 0.83870190 10.08724784
O 14.26206347 0.84556802 12.32923680
O 14.25812928 0.82557451 16.80886677
O 14.24800239 5.39526762 16.78719121
O 9.04183880 1.78878939 16.79307157
O 9.08657287 9.04818055 3.33111625
O 12.97657858 11.80684674 1.08788624
O 14.27144295 12.69322101 3.33672649
O 12.97251562 11.79577873 5.58197139
O 10.37626244 8.14857635 5.55888343
O 10.37884091 12.70033612 5.59739925
O 12.95186306 9.06453797 1.10635985
O 12.98602016 9.04901058 5.58715708
O 9.09505891 11.77694606 7.84621767
O 9.10270732 11.79513902 3.34243504
O 10.39284955 12.71985609 1.10451818
O 10.36280151 8.15815714 1.08410994
O 14.26757718 8.14679826 3.33079927
O 14.28278220 8.14796951 7.84230493
O 14.25904474 12.73569173 7.81197371
O 9.06734114 9.05306637 7.81751101
O 1.31114825 9.06515268 3.33938553
O 5.21507127 11.81336266 1.06198116
O 6.51103450 12.70787626 3.32025751
O 5.18413673 11.82858926 5.57577620
O 2.58394959 8.16089096 5.58955180
O 2.59291501 12.74893129 5.57644721
O 5.18460402 9.07245211 1.10478393
O 5.17755305 9.07449780 5.53312553
O 1.31464301 11.83097870 7.83258451
O 1.33529263 11.80773999 3.32661915
O 2.62554148 12.72092271 1.07582818
O 2.59028559 8.16675372 1.08530810
O 6.48279955 8.15288493 3.33392127
O 6.52913433 8.17977686 7.81602908
O 6.49577804 12.68650483 7.83331225
O 1.32674944 9.08960009 7.84994380
O 1.28173607 1.76530928 3.36124929
O 5.20841646 4.47615357 1.05068023
O 6.51228724 5.43798856 3.26691836
O 5.32387668 4.47969013 5.60105752
O 2.62271898 0.89441177 5.59137332
O 2.66163823 5.44345505 5.59245518
O 5.17471772 1.73747511 1.11889366
O 5.25510400 1.78885583 5.59101934
O 1.32875486 4.51821451 7.81967056
O 1.35468660 4.50204818 3.33131973
O 2.62548149 5.42179084 1.07678747
O 2.57549248 0.86470923 1.11324916
O 6.50951102 0.84370969 3.35450450
O 6.48752089 0.80825851 7.82211853
O 1.35848758 1.78318152 7.83939626
O 9.09447326 1.77615568 3.31843984
O 12.99631330 4.47343753 1.09710617
O 14.27933983 5.40550235 3.31966100
O 12.97880229 4.51892426 5.57554378
O 10.37700790 0.85179395 5.56018713
O 10.36076677 5.41759259 5.56500522
O 12.96304796 1.73025220 1.09426152
O 12.96717025 1.77267823 5.57467802
O 9.08188416 4.47793467 7.72662282
O 9.11017865 4.52025381 3.31916180
O 10.40855161 5.41052175 1.08097879
O 10.36046696 0.85876700 1.06665837
O 14.23960964 0.83349114 3.34548144
O 14.28476605 0.87621104 7.80540800
O 14.28411022 5.40890136 7.80631093
O 9.09420359 1.69098741 7.81486983
O 1.30509117 1.76390610 12.33254600
O 5.28590235 4.59270120 10.08981631
O 6.51588157 5.42179262 12.30781671
O 5.21116810 4.49287267 14.52852740
O 2.60769264 0.84111746 14.56804951
O 2.62366068 5.38500390 14.54604090
O 5.19340659 1.78565375 10.05304487
O 5.18561195 1.75522881 14.54068806
O 1.31278322 4.51753952 16.78563767
O 1.29571322 4.50823589 12.31400891
O 2.60390999 5.40540628 10.06256497
O 2.62332990 0.86822310 10.10420670
O 6.50120749 0.86672719 12.30523969
O 6.46804528 0.87320531 16.79964298
O 6.49266570 5.40703571 16.76672847
O 1.30426992 1.77029050 16.79952511
O 9.07179536 9.06023330 12.30913946
O 12.98540179 11.80919590 10.05221848
O 14.27200512 12.71216251 12.29129374
O 12.98413207 11.82267586 14.53975771
O 10.39887747 8.16770660 14.54244245
O 10.39593297 12.73590265 14.55240782
O 12.96424330 9.06321222 10.07853645
O 12.97388854 9.08711215 14.57732577
O 9.12141879 11.81084658 16.79365834
O 9.09906585 11.80178638 12.32318373
O 10.39403106 12.69820153 10.06858174
O 10.37558262 8.17562453 10.04418992
O 14.22352068 8.14533922 12.32534553
O 14.24848773 8.14110871 16.81662007
O 14.27891598 12.69564585 16.78981454
O 9.09118429 9.06762508 16.78656921
O 1.28093397 9.03038577 12.34469560
O 5.20345304 11.80466629 10.07397038
O 6.50477400 12.71959449 12.31656005
O 5.21479567 11.81157820 14.56195435
O 2.61150888 8.12132033 14.56042559
O 2.62115635 12.68930935 14.55783762
O 5.16625084 9.07999026 10.10358323
O 5.19641723 9.06326532 14.56789675
O 1.32306257 11.78571868 16.79217897
O 1.31770604 11.77156392 12.31501025
O 2.60901096 12.72251408 10.08427208
O 2.57794357 8.15971472 10.10727752
O 6.49666779 8.13546746 12.33469110
O 6.49294058 8.15941490 16.81216538
O 6.53358464 12.73470684 16.77335711
O 1.30133593 9.04553674 16.78085123
H 9.54748215 1.46645814 11.51940571
H 9.09178516 2.73822528 12.27457876
H 13.42338327 4.79009419 9.25604209
H 12.97466506 3.53766277 10.03984178
H 13.79460907 5.11205942 11.49026955
H 14.22220706 6.37132717 12.28223619
H 12.98758742 3.51676778 14.52416928
H 13.43626332 4.77130304 13.73449061
H 9.88743122 1.19905060 13.78884568
H 9.86557974 1.20759011 15.33520463
H 10.43024335 6.38585973 14.54014877
H 11.31121976 5.11378859 14.53850743
H 13.46006565 1.42604922 9.29433863
H 13.45520748 1.42216721 10.84290570
H 12.04126410 1.42618084 14.59534711
H 13.38672618 1.40596624 15.36206252
H 9.56875644 4.84737536 17.55320130
H 9.56243745 4.85194626 16.00705267
H 9.55782376 4.84413721 13.07481422
H 9.54304520 4.85753552 11.52784589
H 10.37485458 6.38717817 10.06100748
H 11.26072779 5.12390844 10.05822315
H 11.31103394 1.13636300 10.07600752
H 10.41742792 14.47790222 10.08392374
H 14.25727515 14.48425671 12.33567860
H 13.79326092 1.13051274 13.12070104
H 15.16759496 1.14185049 16.80153490
H 14.29847644 14.46494264 16.80463694
H 15.15876371 5.08317822 16.76522002
H 13.82261528 5.06664052 15.98762406
H 8.12292398 1.49992215 16.79727394
H 9.03468926 2.75208327 16.79005475
H 9.52525691 8.71554988 4.12309823
H 8.17834474 8.73079738 3.35984570
H 12.07674016 12.15053359 1.07804538
H 13.40892713 12.12953340 0.29012052
H 13.83849858 12.36750743 2.54026918
H 15.17940776 12.37347436 3.31035462
H 12.98956986 10.83278637 5.56851866
H 13.42919195 12.08971864 4.78677022
H 10.39627092 7.18472456 5.56865007
H 11.29139131 8.44444431 5.57184263
H 9.94844205 12.36908766 6.39302917
H 11.28488321 12.37512995 5.61481498
H 12.03333052 8.77481213 1.10050005
H 12.93921994 10.02770797 1.09870553
H 13.45318687 8.71569239 4.81415264
H 13.45740486 8.72594741 6.36148477
H 8.18131028 12.07870680 7.83432782
H 9.06485863 10.81223072 7.82999767
H 9.54937540 12.08891205 4.14391909
H 9.11184246 10.83207766 3.35880851
H 10.36069266 13.68242276 1.11242392
H 9.93919554 12.41813786 1.89901044
H 10.37399379 7.19542080 1.10293849
H 9.90778455 8.44613842 1.88366394
H 14.25624776 7.18420437 3.30194256
H 13.79493182 8.45362938 2.54949925
H 15.18268433 8.48936322 7.87181040
H 13.83554156 8.47541925 8.62967750
H 14.25099817 13.69828724 7.78626619
H 13.80488573 12.42918418 7.01951299
H 8.15871263 8.71587074 7.79992459
H 9.50330107 8.72134337 7.02749472
H 1.74692970 8.73310537 2.54701555
H 0.40522282 8.73769989 3.31142098
H 4.31443428 12.15406268 1.04393129
H 5.65339299 12.14255836 0.27068386
H 6.08260064 12.38338656 2.52157594
H 7.41109319 12.36495845 3.31372386
H 4.28474000 12.17044736 5.55284262
H 5.62536658 12.14806684 4.78266003
H 2.12711688 8.49753017 6.36759632
H 2.11107270 8.48839817 4.81668173
H 2.14359428 12.44559214 4.78048479
H 2.58530507 13.71090554 5.55694465
H 4.26646653 8.78238650 1.09568602
H 5.17290290 10.03549250 1.08872486
H 5.15955031 10.03622431 5.54979539
H 4.26214495 8.78076474 5.55368497
H 1.74855793 12.15942664 7.03830579
H 0.40802843 12.15557975 7.80459312
H 1.79446858 12.09956689 2.53230029
H 1.34570007 10.84452148 3.31734052
H 2.16057085 12.41673231 0.28914180
H 2.58648165 13.68297449 1.06927103
H 2.13247811 8.45709679 0.28879586
H 2.59664110 7.20427337 1.06404866
H 6.01198246 8.49051285 4.10573948
H 6.01761806 8.49219612 2.56169648
H 6.04754077 8.48433915 7.04684166
H 6.04215046 8.48850087 8.57979329
H 6.02724994 12.35052142 8.60559746
H 6.02383446 12.36472600 7.05815630
H 1.34124845 10.05242448 7.86446734
H 1.78131095 8.79000488 8.64432547
H 1.72478993 1.44063822 4.15176975
H 0.37835695 1.43103184 3.38425648
H 5.20995161 3.51387762 1.09567570
H 5.67304184 4.79357778 1.83169837
H 6.48424092 6.40294511 3.29886636
H 6.06398828 5.12483199 4.05369747
H 5.32008260 3.50996421 5.61435602
H 5.93892588 4.75370526 6.26494282
H 3.52877645 1.21480688 5.60357573
H 2.20205865 1.21796238 6.39613536
H 2.65786639 6.40884928 5.58742729
H 3.57795024 5.16901546 5.61647493
H 4.26662810 1.41789046 1.14938547
H 5.62026525 1.40122306 1.90326653
H 5.70123348 1.41805098 6.36175033
H 5.71116588 1.44118186 4.81519748
H 1.76252384 4.85185408 7.02846044
H 0.41920825 4.84014715 7.79737836
H 1.33916142 3.53940668 3.36707648
H 1.80784827 4.80365208 4.12328274
H 2.19724354 5.08632234 1.87135103
H 3.52624107 5.08238531 1.08553900
H 2.11819616 1.20473804 0.33668647
H 2.09822081 1.18836532 1.88421949
H 7.42214888 1.15177358 3.33339057
H 6.54021896 14.48251921 3.34184320
H 6.47206743 14.44608302 7.84913049
H 6.02722999 1.11834787 8.60701961
H 1.35933089 2.74595252 7.86198528
H 1.79405916 1.48124910 8.64314665
H 9.55052744 1.47306628 4.11140854
H 9.10885951 2.73901995 3.34189284
H 12.99376351 3.51052375 1.07408752
H 13.43717822 4.76954303 0.29340397
H 15.18657071 5.08647275 3.30487432
H 13.85017789 5.06184369 2.52805367
H 13.43176145 4.81279891 4.77882320
H 12.98599501 3.55630039 5.55597081
H 10.37104902 14.49140416 5.58119955
H 9.92248481 1.14025569 6.36046600
H 11.26338855 5.08858917 5.59054718
H 9.91606167 5.07618317 6.35620136
H 13.40141339 1.39341756 0.30504904
H 12.05205818 1.41943746 1.06151422
H 12.06113406 1.44555352 5.56343986
H 13.39202024 1.42874706 4.78143390
H 9.09423918 3.52179335 7.78354958
H 9.47344525 4.80076371 8.53792538
H 8.21146110 4.86219293 3.31808254
H 9.53536355 4.85442657 4.11892364
H 11.31027925 5.07457556 1.10379176
H 9.97258755 5.08342825 1.87560547
H 9.90584913 1.19786387 1.84534210
H 9.88176767 1.19187503 0.30025354
H 14.24054332 14.47250654 3.32262314
H 13.78933312 1.12864130 2.54624188
H 15.18868939 1.20422091 7.78571842
H 13.84337394 1.21269837 7.01777921
H 14.26631679 6.37205181 7.80596609
H 13.81660048 5.12070030 7.01417039
H 9.53102323 1.38248788 8.61464624
H 8.18894849 1.36888494 7.84803027
H 1.27569886 2.72630773 12.32613590
H 0.39053110 1.45980533 12.33499749
H 5.78773073 4.98270541 9.38999263
H 5.72320325 4.88662778 10.90624497
H 6.53390355 6.38731345 12.32358357
H 7.43458218 5.12314511 12.31259680
H 5.68513076 4.83356760 13.76292839
H 5.67369323 4.82250596 15.30723317
H 2.16645378 1.17178248 13.77862668
H 3.51240427 1.17071954 14.53614929
H 3.52485024 5.04658644 14.51615906
H 2.17430637 5.06365543 13.75712623
H 5.19143353 2.74336765 10.04726292
H 4.27352251 1.49678142 10.07787309
H 5.20877426 2.71788957 14.51851349
H 5.65663838 1.45172169 13.75702507
H 1.78260515 4.84614059 17.55929475
H 1.78883385 4.84081406 16.01329180
H 0.39240492 4.84551711 12.29045836
H 1.73021251 4.82915736 11.51845716
H 2.17802982 5.08124179 9.26053031
H 3.51499016 5.10993744 10.04037289
H 2.61352469 14.50682023 10.11540857
H 2.15252069 1.15845546 10.89315622
H 6.06652157 1.19641252 11.51361397
H 7.40835864 1.19274138 12.27977545
H 5.98723341 1.18021875 17.57513131
H 5.99354145 1.19216666 16.02478288
H 6.05794786 5.05560088 17.55137621
H 7.40307502 5.09355806 16.79108460
H 1.31551195 2.73285937 16.77179094
H 1.76995940 1.46561158 16.01319110
H 9.09201975 10.02280627 12.33344964
H 9.54490930 8.75756229 13.09138440
H 13.41094650 12.14596373 9.25645406
H 12.07860376 12.13478263 10.04103458
H 15.17244518 12.37124384 12.28282694
H 13.84097792 12.38611824 11.49346627
H 12.08130610 12.15797491 14.52602771
H 13.41361387 12.14181770 13.73890555
H 11.29917963 8.50952635 14.57088621
H 9.95667765 8.48898510 15.33514660
H 9.94964437 12.42388074 15.34712588
H 10.36579336 13.69822155 14.57779968
H 12.04524729 8.77216278 10.05623267
H 12.94882200 10.02590363 10.06271400
H 12.99668796 10.05001694 14.58879267
H 13.42808179 8.78261237 15.36986712
H 9.12030652 10.84753580 16.80547704
H 9.57165994 12.09849262 17.59488741
H 8.19646135 12.13573422 12.34184683
H 9.53670210 12.14028722 13.11150595
H 9.92901242 12.36966924 10.84480458
H 9.92109847 12.36142259 9.29898660
H 9.89526137 8.48790168 9.26776572
H 9.90063382 8.49812737 10.81591329
H 13.76091658 8.48460649 13.09876409
H 13.76251606 8.48721801 11.55082547
H 14.22996302 7.17847342 16.82911486
H 13.79159896 8.44078484 17.60983551
H 15.18075223 12.35679629 16.77281595
H 13.84731149 12.38111400 15.98819240
H 9.52022855 8.73126944 17.58130222
H 8.18532094 8.74257243 16.80764610
H 1.72152764 8.69212116 13.13140889
H 0.37255901 8.71001666 12.36569531
H 5.17497605 10.84036434 10.08776700
H 4.28940311 12.10608136 10.08079574
H 6.05021449 12.41313367 11.52449922
H 6.49220671 13.68152773 12.28751210
H 5.68025456 12.13446425 13.78293467
H 5.69414289 12.14613471 15.32782246
H 2.65114267 7.15901601 14.55357976
H 3.52115548 8.43787699 14.55925984
H 2.63219769 13.65206121 14.55951161
H 3.54154751 12.40388692 14.55787132
H 4.26619153 8.74157377 10.12532113
H 5.60996806 8.73801513 10.88469454
H 5.65223523 8.77014568 15.36407827
H 5.21012567 10.02613699 14.58065014
H 1.78422245 12.08215611 15.99981986
H 1.33005657 10.82265603 16.77319640
H 1.31657708 10.80902193 12.34814663
H 1.77645764 12.07494875 13.10529994
H 2.13810433 12.40766693 9.30541082
H 2.14403045 12.37223645 10.85141327
H 2.56534810 7.19852520 10.10729911
H 2.11170438 8.44358962 10.90146410
H 6.06587791 8.47195229 13.12746077
H 7.39719827 8.47926751 12.34077629
H 6.47867727 7.19697522 16.82036343
H 6.03181790 8.45244857 17.60516945
H 7.44966735 12.43807455 16.78473152
H 6.54694722 13.69730905 16.78349690
H 0.39531615 8.71898124 16.76737210
H 1.73752753 8.70453106 15.99269065
