381

O 9.09031410 1.73466908 12.28845294
O 12.97748331 4.50298701 10.06545272
O 14.29393706 5.41426833 12.30682859
O 12.96441537 4.50124201 14.53395130
O 10.39460976 0.85214292 14.53764652
O 10.36673617 5.39347700 14.52069548
O 12.97753686 1.75925356 10.06947354
O 12.98380400 1.76445370 14.57482749
O 9.05349771 4.51513360 16.78264522
O 9.06118807 4.47125503 12.31318562
O 10.38605456 5.41187109 10.09399519
O 10.39213074 0.84280388 10.06183663
O 14.25937392 0.87165257 12.32478102
O 14.27853658 0.81225997 16.79938917
O 14.28025131 5.44409872 16.74461633
O 9.04177562 1.76122079 16.74072681
O 9.07787864 9.09355274 3.32709783
O 12.95131195 11.79586060 1.08180557
O 14.29306913 12.71633838 3.30602543
O 13.00072939 11.79730289 5.57586993
O 10.38395777 8.19727942 5.59887568
O 10.39053049 12.71598189 5.60166807
O 12.95275401 9.04520107 1.12898451
O 12.97348312 9.05943449 5.59174931
O 9.08932347 11.81854013 7.84870213
O 9.08651964 11.84630438 3.35785965
O 10.38302138 12.74971004 1.10436485
O 10.35544249 8.09342669 1.09192880
O 14.27040944 8.15531215 3.36124918
O 14.23925316 8.15446009 7.84923795
O 14.27569681 12.69957224 7.83284112
O 9.08631120 9.07663328 7.83817830
O 1.33311496 9.07799248 3.34601000
O 5.21598510 11.78713050 1.11594884
O 6.48969619 12.72871313 3.34874183
O 5.21031770 11.79298844 5.59176288
O 2.60146829 8.16267554 5.59606783
O 2.62607909 12.70582094 5.56835607
O 5.21963474 9.05001609 1.09520609
O 5.20615662 9.04670914 5.59190923
O 1.33704283 11.80752377 7.81938025
O 1.34340896 11.81295082 3.31284973
O 2.63810394 12.73854666 1.08149065
O 2.62911736 8.14841558 1.10157385
O 6.49546614 8.12368678 3.33095751
O 6.50664493 8.16338451 7.82916656
O 6.49736096 12.72634445 7.82896922
O 1.29656720 9.06796303 7.83690444
O 1.29628239 1.76211820 3.31307137
O 5.25280135 4.46982317 1.13311599
O 6.51662947 5.32465658 3.48216765
O 5.13386545 4.49405628 5.60385296
O 2.60023421 0.84610674 5.55188850
O 2.57161221 5.42427354 5.61657991
O 5.19925493 1.75839584 1.04030184
O 5.17436325 1.77750638 5.57092001
O 1.27968632 4.51482399 7.84979126
O 1.33756938 4.50996221 3.34272843
O 2.65744099 5.40397012 1.10285320
O 2.60989870 0.87706984 1.07676825
O 6.44511127 0.87730441 3.33424515
O 6.50364138 0.86534634 7.80089728
O 6.46335344 5.42827310 7.83707852
O 1.33207206 1.76954243 7.80854732
O 9.10398917 1.79810527 3.22397302
O 13.01540306 4.51480019 1.03071649
O 14.28820383 5.41024454 3.25275412
O 12.98505179 4.49692041 5.53128901
O 10.37290766 0.88256177 5.56260985
O 10.37112951 5.53389195 5.58348494
O 12.95804352 1.75497748 1.06812846
O 12.95466899 1.75191967 5.56472547
O 9.06640560 4.50677374 7.84785770
O 10.46072827 5.28762030 1.13653476
O 10.38030527 0.88807089 1.05320115
O 14.24680714 0.86210307 3.32248649
O 14.26639943 0.84566868 7.82911030
O 14.22418348 5.41738865 7.80167327
O 9.07614451 1.77935970 7.82382488
O 1.31092440 1.76765037 12.30262996
O 5.18347978 4.47954012 10.06726323
O 6.47931806 5.39028301 12.29954830
O 5.21224330 4.49663882 14.56818429
O 2.59716641 0.85667729 14.54281927
O 2.64349507 5.42788345 14.58745559
O 5.20286217 1.74049041 10.04612193
O 5.18759531 1.75130702 14.49275324
O 1.33213266 4.50402909 16.81829183
O 1.35131212 4.50665558 12.33602305
O 2.60862591 5.42379936 10.08954199
O 2.60357463 0.87300040 10.06296531
O 6.51116870 0.82960990 12.27359375
O 6.45872683 0.81303997 16.74090442
O 6.49479283 5.44676817 16.82856176
O 1.30540541 1.76534037 16.78342274
O 9.09471535 9.04762958 12.29602790
O 13.00342436 11.81642819 10.09866335
O 14.28207892 12.74139918 12.34711686
O 12.95783992 11.79465492 14.55509099
O 10.37905911 8.14095827 14.53213473
O 10.37760777 12.71618290 14.55218089
O 12.97370126 9.07387355 10.09600676
O 12.96049074 9.04975023 14.55780307
O 9.11829694 11.78437413 16.80897070
O 9.08520874 11.79037329 12.32137971
O 10.40381575 12.69806617 10.08908775
O 10.39151437 8.14896380 10.05741780
O 14.27650213 8.16088071 12.32636468
O 14.26128946 8.18167010 16.81403406
O 14.25355574 12.68000246 16.79805917
O 9.10316680 9.03971362 16.78648629
O 1.33035063 9.07728279 12.31100211
O 5.17931867 11.80398870 10.05254795
O 6.49272891 12.68548151 12.29198165
O 5.19032000 11.79921939 14.54096656
O 2.63685429 8.16611909 14.56090549
O 2.61092307 12.72191338 14.58188530
O 5.19743033 9.06386608 10.06426639
O 5.23312509 9.06474853 14.52384448
O 1.30802930 11.81073263 16.81277358
O 1.32604338 11.82203483 12.32522313
O 2.60046718 12.73632321 10.07196617
O 2.61106155 8.16343059 10.07025257
O 6.51705420 8.13852981 12.27764065
O 6.49899076 8.17691218 16.78413218
O 6.50708913 12.66757937 16.79186857
O 1.32914684 9.06655454 16.81205841
H 9.56834204 1.41831035 13.06203680
H 9.56705027 1.41360088 11.51448177
H 13.46464796 4.83327561 10.82685825
H 13.42166121 4.83867700 9.27922293
H 15.19854156 5.08626304 12.34272982
H 13.84403824 5.07491734 13.08722404
H 12.95286313 3.53806313 14.55502899
H 12.04581818 4.78935372 14.52432674
H 9.93812810 1.18526571 15.31754746
H 11.29823167 1.18204070 14.57751690
H 9.89264863 5.05540975 13.75200190
H 9.89380950 5.07775019 15.29596445
H 12.98431991 2.72204129 10.04568099
H 13.43613599 1.45906762 9.27715092
H 13.45376071 1.41745283 15.34032058
H 13.44672382 1.44394485 13.79297833
H 8.15853667 4.87171406 16.82550823
H 9.50636769 4.79175527 17.58038393
H 8.14593500 4.77073904 12.30023750
H 9.04141116 3.50823359 12.29906707
H 9.94838464 5.07269485 10.88095774
H 11.28767320 5.07439707 10.10578356
H 10.41633751 14.48237704 10.06491944
H 11.30707157 1.14363436 10.05920445
H 13.82141146 1.19157038 11.52830890
H 15.16410636 1.20121755 12.29330372
H 13.81195390 1.11822645 17.58461352
H 14.25876984 14.45128256 16.82149941
H 14.26462404 6.40714234 16.73904748
H 13.81645483 5.14723817 15.95416284
H 8.13229141 1.44564741 16.73985168
H 9.00405937 2.72186517 16.74643973
H 9.50922484 8.74549023 2.54184052
H 8.17777608 8.75585230 3.31568495
H 12.91953491 10.83430770 1.10395323
H 12.04004142 12.10833524 1.09788909
H 14.26507177 13.67892143 3.29643533
H 13.82059925 12.41801809 2.52250737
H 13.44870423 12.09571452 4.77875516
H 13.00337516 10.83417463 5.55487134
H 10.37089714 7.22683055 5.58117528
H 9.93001170 8.49392834 4.80619189
H 9.96073576 12.38924149 6.39883713
H 11.29627836 12.39265883 5.61901387
H 13.38907839 8.72543323 1.92633011
H 12.05701795 8.69673184 1.13993166
H 13.39269880 8.73573846 6.39582947
H 12.06157310 8.74481928 5.60631878
H 9.09522120 10.85525669 7.86410062
H 9.55290977 12.10818736 8.64145860
H 9.54986429 12.13398478 4.15231146
H 9.09955420 10.88436849 3.36355086
H 10.37364881 13.71370168 1.10701653
H 9.92148122 12.46527351 1.90005752
H 10.35274214 7.13564602 1.08770302
H 9.91522331 8.38687832 0.28631143
H 13.83665432 8.46965566 4.16268920
H 15.16996328 8.49718520 3.37669731
H 13.81207406 8.48634680 8.64616808
H 15.14347100 8.48474790 7.86147393
H 15.18082761 12.37230070 7.80591978
H 13.84127000 12.37306280 7.03746149
H 9.56440531 8.73451222 8.60115758
H 9.55329451 8.75995340 7.05588450
H 1.78261696 8.76746061 2.55362029
H 1.34526303 10.04091900 3.31100217
H 4.31719839 12.13278964 1.11716526
H 5.64624711 12.12707213 1.90844073
H 6.06467025 12.39303943 4.14467388
H 7.40104380 12.41756368 3.37063383
H 5.22223868 10.83085681 5.61746645
H 5.66564304 12.09947821 6.38332882
H 3.50899442 8.48324085 5.57876344
H 2.17369180 8.49595476 4.79979251
H 3.53022101 12.37415621 5.55245861
H 2.19231611 12.37379400 4.77519181
H 5.22362781 10.01404278 1.09870735
H 5.67253698 8.77606180 0.29039857
H 5.67576213 8.72051932 4.81913512
H 5.68078565 8.72370824 6.36595530
H 1.79651709 12.14489617 8.59543606
H 1.80839146 12.13671887 7.04692751
H 1.78005348 12.15376654 2.52478264
H 0.43845175 12.14356355 3.29104125
H 2.62235580 13.70130160 1.05825795
H 2.16876363 12.43428526 0.29738117
H 2.65589687 7.18598778 1.10484529
H 3.54393872 8.44915305 1.09796201
H 6.48504533 7.16581522 3.33760636
H 6.03512004 8.41240185 2.53465757
H 7.41318823 8.49027192 7.85461323
H 6.06541301 8.49513750 8.61835411
H 7.41327147 12.42822168 7.83691147
H 6.52088219 13.68919580 7.81227693
H 1.32140174 10.03066433 7.81314218
H 1.75581794 8.76454483 7.04701547
H 1.28526176 2.72441313 3.33001151
H 0.37734456 1.47196130 3.31765794
H 5.24884462 3.50444899 1.10857762
H 5.70297420 4.72212839 1.94042652
H 7.38938128 4.99176203 3.62879113
H 5.99828839 5.03291001 4.25050932
H 4.21828338 4.79744460 5.60999491
H 5.11467243 3.52862050 5.60039861
H 2.13949572 1.13725849 4.75811838
H 2.59500085 14.48499329 5.54025302
H 2.10609924 5.13133321 6.40802884
H 2.56854508 6.38759705 5.63193251
H 5.62350956 1.41252621 0.24782768
H 4.28929611 1.44180254 1.03247334
H 4.27590749 1.43021420 5.55142379
H 5.60857168 1.45704642 4.77099825
H 0.37231606 4.83871249 7.86275620
H 1.71118517 4.84129421 8.64578397
H 1.82773572 4.83200662 2.57969912
H 1.78381103 4.84209567 4.12856326
H 3.55603385 5.06229559 1.08297543
H 2.21109190 5.07210354 0.31622653
H 2.13698638 1.19837066 1.85222787
H 2.13386164 1.20391715 0.30589551
H 6.45844592 14.51731714 3.32355642
H 6.00940238 1.15485063 2.52351044
H 6.06353810 1.19462432 7.01081680
H 7.40559085 1.20569175 7.78477962
H 6.46583175 6.39124393 7.81370676
H 5.99508895 5.12940182 7.05276067
H 1.32443815 2.73205100 7.79538313
H 1.77887524 1.47782812 7.00735490
H 9.53189057 1.52502444 4.03642440
H 8.19942894 1.49062594 3.28560037
H 13.47616022 4.84753350 0.25159899
H 13.49366359 4.84419162 1.80237555
H 15.20569973 5.11940941 3.28639594
H 14.30157192 6.37210927 3.29584905
H 13.43712308 4.78093925 4.73319870
H 12.97925571 3.53465337 5.52080676
H 9.91433548 1.18536995 6.35212485
H 10.35423682 14.52396015 5.58481940
H 11.24677104 5.14753143 5.55604088
H 9.93170044 5.15195902 6.34365867
H 12.95837708 2.71604668 1.04880195
H 12.03444271 1.47472719 1.05919837
H 13.38795815 1.42408547 6.35813968
H 12.04326119 1.43670870 5.59096430
H 9.50592980 4.84567671 8.63312608
H 8.16544887 4.84072649 7.86572614
H 10.13185978 4.87569478 1.92158160
H 11.39281445 5.02019309 1.08053647
H 9.89865074 1.19545432 0.28045685
H 9.90445134 1.22194547 1.82982492
H 13.77186434 1.17613400 4.10024141
H 13.77046960 1.18944636 2.55254457
H 14.29178873 14.48521590 7.83125265
H 15.18047112 1.14580662 7.81602735
H 13.78391912 5.11551546 6.99905656
H 14.20764992 6.38013945 7.78675367
H 9.08878610 2.74315818 7.85106682
H 9.53679912 1.47310841 8.61081731
H 1.76910929 1.47395226 11.50753309
H 1.33518591 2.73058052 12.29548724
H 5.64463949 4.79164168 9.28128685
H 5.20324720 3.51669934 10.03807964
H 6.00554677 5.05219326 11.53170077
H 6.01343058 5.07380586 13.08010099
H 4.30931895 4.83272584 14.59559132
H 5.65046192 4.82837151 15.35726017
H 2.15972292 1.17893027 13.74715703
H 3.50300844 1.18223690 14.50825191
H 2.17629311 5.12702820 15.37364295
H 2.62608884 6.39083728 14.60076526
H 5.67615779 1.40754351 10.81618314
H 5.67418365 1.41702077 9.27057742
H 5.65460011 1.46024338 13.70231267
H 5.21454959 2.71354565 14.49950527
H 0.42159770 4.81520746 16.79476632
H 1.29598399 3.54134884 16.80273769
H 1.82220292 4.83631709 13.10785090
H 1.81296975 4.84589228 11.56108590
H 2.64118349 6.38632862 10.08237629
H 3.51933904 5.11085864 10.07114791
H 2.17584948 1.19769301 9.26318915
H 3.51432095 1.18580815 10.03858796
H 6.52387488 14.46889915 12.28458338
H 7.42987471 1.11981856 12.28012078
H 6.46558203 14.45238974 16.73456513
H 6.00647754 1.10036584 15.94110566
H 6.04912022 5.14286373 17.62529045
H 6.47085602 6.41017994 16.83562248
H 1.74383922 1.44187488 15.98918788
H 0.40834821 1.41370923 16.77039643
H 9.53446850 8.72760182 11.50050521
H 8.19161021 8.71311419 12.26659491
H 13.47294391 12.15997382 10.86578502
H 13.46615052 12.13681850 9.31698159
H 13.81032149 12.43235120 13.12765701
H 14.25871374 13.70431406 12.36588020
H 12.04259271 12.09503694 14.55162969
H 12.93578758 10.83203113 14.54828024
H 10.36197525 7.17855995 14.50478152
H 9.92567495 8.44578834 13.73782011
H 9.91381585 12.41525980 13.76344436
H 10.37654321 13.67912085 14.52653616
H 13.43252385 8.77224508 10.88724984
H 12.99202759 10.03659225 10.11473061
H 12.05834826 8.71225846 14.57028782
H 13.38943689 8.74204344 15.36269496
H 9.57818416 12.13348566 17.57992435
H 9.57379402 12.12806065 16.03308675
H 9.06716200 10.82745097 12.31452312
H 8.16774036 12.08272052 12.30384913
H 11.31042544 12.37460617 10.11489412
H 9.96537642 12.37111065 10.88132507
H 11.30487197 8.45390035 10.07339936
H 10.41775258 7.18595904 10.06882658
H 14.27436977 7.19778134 12.33476064
H 13.81278202 8.44543669 13.12101914
H 15.16704701 8.50792989 16.83185505
H 13.83095361 8.49730877 17.61529398
H 13.78201249 12.35918325 16.02169542
H 13.77644146 12.35048190 17.56796088
H 9.55415026 8.74867793 15.98643187
H 9.13102478 10.00296316 16.78580588
H 1.30331608 10.04000044 12.31455771
H 0.41616865 8.77436873 12.32316548
H 5.62275198 12.14005224 9.26617927
H 4.27927005 12.14623126 10.03462931
H 6.01660838 12.36907995 13.06650031
H 6.01504173 12.36636736 11.51870692
H 4.28737539 12.13312963 14.57834695
H 5.63600810 12.11077237 15.33544156
H 2.19640900 8.49147686 13.76896170
H 3.54334642 8.48919878 14.52614824
H 2.59513583 13.68488906 14.59130678
H 2.14719837 12.42511405 15.37225162
H 5.17123834 10.02687625 10.06179018
H 4.28140321 8.76548511 10.06043141
H 5.23226352 10.02795797 14.50329946
H 5.68905982 8.76523369 13.73034862
H 0.38654384 12.09260379 16.81001048
H 1.30201715 10.84794807 16.81321470
H 1.76256552 12.14063848 13.12219044
H 0.42340577 12.15785308 12.35429025
H 2.58518049 13.69911512 10.09435122
H 2.14986468 12.43281650 10.86711308
H 2.14330474 8.49438757 10.84475591
H 2.13473061 8.48728277 9.29822061
H 6.04651756 8.44014777 11.49290646
H 6.49045904 7.17606312 12.26689310
H 7.40821135 8.49409654 16.76015065
H 6.07141009 8.49828565 15.98242566
H 7.41505200 12.34824781 16.81411307
H 6.07936819 12.34895446 17.59328660
H 1.79899288 8.74577339 16.03550001
H 1.80178438 8.73084225 17.58106526
