381

O 9.09628041 1.76125212 12.29191980
O 12.97446975 4.51917354 10.06613476
O 14.26598522 5.42734080 12.30422032
O 12.97873318 4.50771726 14.55078667
O 10.36108568 0.84499520 14.53651604
O 10.38428039 5.40945098 14.54985359
O 12.97448097 1.78010244 10.08580896
O 12.94987104 1.76500770 14.54996032
O 9.07880514 4.49317823 16.82485688
O 9.08063133 4.50758788 12.30802905
O 10.37505330 5.39882514 10.05674453
O 10.38784124 0.87202757 10.04994769
O 14.26672670 0.85729152 12.31532629
O 14.23754581 0.82665929 16.78436723
O 14.26858119 5.39482229 16.80210549
O 9.03621970 1.80859733 16.82486013
O 9.09919447 9.10082856 3.33390691
O 12.99217426 11.79292840 1.09421740
O 14.25388044 12.66985258 3.34108471
O 12.96713442 11.80783694 5.60699498
O 10.38133388 8.18416471 5.58930803
O 10.37100952 12.73752290 5.55589720
O 12.97902177 9.04813605 1.06492973
O 12.97208925 9.07520818 5.57362599
O 9.08983588 11.80018053 7.80588140
O 9.12601872 11.83554370 3.26155200
O 10.38676617 12.77587233 0.91659683
O 10.37831948 8.17564980 1.07894042
O 14.25922621 8.14668052 3.33245767
O 14.25116678 8.14478846 7.81505558
O 14.26532582 12.72894002 7.83425926
O 9.09632331 9.06391085 7.84185661
O 1.31876988 9.04178905 3.36120719
O 5.18093563 11.80605951 1.10374825
O 6.51572687 12.74729824 3.33417679
O 5.21196797 11.83149770 5.57362608
O 2.62911648 8.13105897 5.59668027
O 2.61318658 12.70602217 5.58000471
O 5.20115861 9.05969157 1.09241232
O 5.21412430 9.07905245 5.57497400
O 1.32197595 11.79158173 7.82451876
O 1.30520895 11.77530277 3.34730122
O 2.59465615 12.69625985 1.10433012
O 2.61804472 8.16280042 1.09912615
O 6.51807703 8.16759762 3.32491052
O 6.49929687 8.16715392 7.83362894
O 6.50151411 12.71747242 7.82849527
O 1.31607505 9.04219133 7.82524969
O 1.31489145 1.75104381 3.34136990
O 5.18791127 4.47977678 1.12403757
O 6.46962273 5.42264431 3.34502308
O 5.19807153 4.51970624 5.59551109
O 2.62371988 0.85550354 5.58000425
O 2.60874393 5.39752080 5.61608792
O 5.18447799 1.74256214 1.09495531
O 5.22769622 1.78291555 5.54934783
O 1.29982784 4.48032842 7.84485064
O 1.33894292 4.49155863 3.35905105
O 2.60987939 5.40720755 1.08412028
O 2.59830324 0.83705493 1.09330971
O 6.53949516 0.88670310 3.34150725
O 6.50337643 0.85903087 7.78591611
O 6.48769718 5.42260864 7.83085324
O 1.32875866 1.74092930 7.84730663
O 9.14701107 1.92369638 3.25666337
O 12.96262108 4.53412668 1.09572224
O 14.27667409 5.42004110 3.36420031
O 12.94393185 4.48819907 5.57878417
O 10.40045310 0.88528746 5.53238434
O 10.35466644 5.44326265 5.59222610
O 13.01020441 1.72094479 1.19173874
O 12.97793715 1.74741989 5.58083404
O 9.06429945 4.49124213 7.81940652
O 9.05268528 4.57573769 3.36906540
O 10.35578547 5.44637382 1.09438914
O 14.27512689 0.83303225 3.36612140
O 14.26445763 0.86758494 7.84542055
O 14.25117776 5.40460820 7.81193409
O 9.09160053 1.74432202 7.80460297
O 1.31827790 1.75138705 12.32390136
O 5.20521757 4.51530034 10.06509500
O 6.48471349 5.40825050 12.31299258
O 5.21064176 4.52138825 14.56675323
O 2.61712996 0.84644312 14.56112309
O 2.60901309 5.40430862 14.56679991
O 5.21753363 1.77150709 10.03367214
O 5.19972465 1.76687853 14.51770645
O 1.31169714 4.48723750 16.79015727
O 1.31000350 4.49364056 12.31959348
O 2.60543738 5.40166613 10.07874803
O 2.63131717 0.84283488 10.08709624
O 6.50592688 0.85099105 12.27930271
O 6.42256045 0.82145108 16.79610809
O 6.50143266 5.40606190 16.83211448
O 1.30276586 1.75549700 16.79289860
O 9.07579730 9.08148511 12.28365485
O 12.96221618 11.80002178 10.06894959
O 14.27207837 12.70778875 12.31439130
O 12.98810039 11.79676422 14.56040008
O 10.37152185 8.16669699 14.53354767
O 10.39912846 12.68467456 14.52653183
O 12.98704598 9.05807810 10.07854553
O 12.96679121 9.05979913 14.55898298
O 9.05817802 11.78220942 16.76688950
O 9.10170178 11.82379428 12.27595684
O 10.38563523 12.74119044 10.03445078
O 10.39915156 8.13807060 10.06430153
O 14.28823740 8.16943600 12.32455418
O 14.28463131 8.14520433 16.78108537
O 14.28054057 12.72082343 16.78847413
O 9.06521018 9.06091200 16.78452902
O 1.35886650 9.06309066 12.32973748
O 5.21742333 11.78751392 10.06319953
O 6.50733499 12.70339317 12.30812678
O 5.19453909 11.77206256 14.52798652
O 2.65199603 8.13832570 14.57442941
O 2.62020220 12.70472872 14.54352160
O 5.20141875 9.04970666 10.07677470
O 5.22597071 9.04413826 14.55753348
O 1.32430897 11.80378992 16.78740626
O 1.32302365 11.80381480 12.29751585
O 2.62771310 12.70066766 10.05915244
O 2.61839586 8.14147458 10.07044108
O 6.50074145 8.14983454 12.31198568
O 6.49705503 8.13728010 16.80363155
O 6.47687261 12.66149910 16.77784606
O 1.33040980 9.06031232 16.80345197
H 9.54127436 1.45339873 13.09056681
H 9.10060204 2.72342737 12.32617113
H 12.06453759 4.83330155 10.04107544
H 13.40312816 4.84132484 9.26582479
H 14.26539582 6.39023097 12.29050023
H 13.80394398 5.13704268 11.51066797
H 13.44888196 4.84358016 13.78100380
H 13.44977312 4.82484250 15.32882703
H 11.27360879 1.15095870 14.55094213
H 10.39497269 14.48666268 14.53808614
H 11.30055901 5.11287117 14.55206139
H 10.40556683 6.37120918 14.54663164
H 12.98706569 2.74300886 10.10485987
H 13.43162104 1.47720365 10.87810341
H 13.41467852 1.46928775 13.76097770
H 12.96231312 2.72763308 14.53384014
H 9.07883823 3.52369979 16.80499830
H 9.53284411 4.78810368 16.03066308
H 8.17440594 4.83159855 12.33685898
H 9.52000851 4.83763197 13.09943412
H 9.90025084 5.06515539 9.28866638
H 9.90830930 5.07573006 10.83522545
H 9.94762575 1.19626708 10.84433314
H 11.29263371 1.20111893 10.08347107
H 15.18539319 1.14707663 12.31847222
H 14.28302753 14.49671042 12.31349495
H 15.13710746 1.16640659 16.76786972
H 13.79601553 1.17046636 16.00093943
H 14.26498218 6.35714817 16.81662079
H 13.80071132 5.10455220 17.59386054
H 9.48778386 1.45481921 16.05798121
H 8.14503910 1.45876151 16.79548868
H 9.53033966 8.77635553 4.13169734
H 8.19674724 8.76331093 3.34796086
H 12.09961797 12.14088037 1.07684318
H 13.41017348 12.11532879 1.90202277
H 15.16007374 12.34279572 3.36015005
H 13.82748345 12.35619678 4.14499432
H 12.06597346 12.14424792 5.61560064
H 13.40254298 12.14502239 6.39769944
H 9.95455452 8.50982325 6.38908442
H 11.28846253 8.50860275 5.60272084
H 10.36101016 13.69965164 5.53184242
H 9.93924371 12.43912528 4.75037830
H 12.06075057 8.75759016 1.07078220
H 12.96463447 10.01027596 1.07629808
H 13.42447663 8.77179100 4.77914323
H 12.99074806 10.03808577 5.55863967
H 9.53566138 12.09653313 7.00662463
H 9.10818606 10.83696209 7.79996807
H 9.56415815 12.12985282 2.46287930
H 9.13464090 10.87093503 3.25625377
H 10.44710846 13.70810288 0.77048621
H 9.90402311 12.42021481 0.15246465
H 10.36293597 7.21143723 1.09355461
H 9.92943049 8.46931319 1.87788035
H 14.25360159 7.18268991 3.32350574
H 13.81267347 8.43594311 2.53048956
H 13.79236230 8.47422918 8.59514905
H 13.78277918 8.48780555 7.04680103
H 14.29458607 13.69177223 7.84393577
H 15.17774089 12.42152793 7.83278688
H 9.53311362 8.72616165 8.63155929
H 8.18963814 8.73949249 7.85978692
H 0.41327546 8.71430732 3.37877264
H 1.75711534 8.70299262 4.14876587
H 5.62296822 12.15048086 1.88529324
H 4.27404457 12.13113592 1.12907480
H 6.54852806 13.70940905 3.33782814
H 7.42676981 12.44159705 3.30968294
H 5.67996825 12.15068401 6.35271996
H 5.68727065 12.16653469 4.80672021
H 3.54068902 8.44032341 5.58755881
H 2.65705043 7.16812624 5.60520138
H 3.53237858 12.41884300 5.57512484
H 2.62894018 13.66894821 5.57872336
H 4.28376050 8.76412507 1.09714107
H 5.17819778 10.02231679 1.09765882
H 5.67414306 8.78030467 4.78377167
H 5.22220227 10.04150446 5.55203388
H 1.77511730 12.08800253 7.02814868
H 1.32309466 10.82884273 7.80291550
H 1.32584186 10.81249802 3.37774152
H 1.76819218 12.08748107 4.13170836
H 2.13466529 12.37311756 0.32195188
H 2.12025598 12.35859908 1.87117978
H 2.14468863 8.49801281 0.32952609
H 2.14582957 8.47778128 1.87651998
H 6.49079897 7.20515328 3.31212471
H 6.05032844 8.46433650 2.53646467
H 6.03706302 8.50120852 7.05807219
H 6.02417416 8.49371057 8.60570937
H 6.06817238 12.38254059 8.62131684
H 7.40329620 12.38035838 7.84334052
H 0.40973451 8.71821167 7.79790278
H 1.75682021 8.70789791 7.03682375
H 0.40820595 1.42201336 3.32908407
H 1.74088006 1.41622792 2.54530050
H 5.16082757 3.51702584 1.10934940
H 4.27452458 4.78583039 1.10271298
H 5.99940970 5.09931372 4.12122700
H 6.00737503 5.07395796 2.57393397
H 4.28747549 4.83329382 5.62816485
H 5.63455668 4.85290525 6.38728171
H 3.52385129 1.19321215 5.54694265
H 2.17764335 1.17823630 4.78892857
H 2.15028207 5.06785885 4.83541215
H 2.13096938 5.06466100 6.38345965
H 5.67098176 1.42542525 1.86072252
H 5.63913025 1.40873794 0.31212812
H 5.22438979 2.74563375 5.58964308
H 5.67404697 1.47352865 6.34539970
H 1.28392828 3.51739286 7.84767961
H 0.38406310 4.77807723 7.83479665
H 1.78102493 4.79767318 2.56073294
H 1.34176816 3.52861543 3.32505978
H 2.14732358 5.10996094 0.29297097
H 2.60232792 6.36962330 1.06657394
H 3.51515876 1.13133841 1.09680728
H 2.61659070 14.47657010 1.09637331
H 7.42371544 1.25516012 3.34026151
H 6.09621294 1.22053199 4.13160092
H 7.42382447 1.14224706 7.79651250
H 6.51327834 14.49800743 7.80505827
H 6.02975021 5.13112427 8.62737073
H 6.48588019 6.38566466 7.84865437
H 1.80492502 1.41162937 8.61733672
H 1.79711557 1.42151934 7.06924620
H 9.10930214 2.89352504 3.30638441
H 9.59243293 1.73203497 2.44482686
H 12.05815654 4.85912489 1.11961729
H 13.39781852 4.85235090 1.89132347
H 15.17787196 5.08200949 3.37765970
H 13.83597337 5.07907075 4.14881599
H 12.92626236 3.52516542 5.57764738
H 12.03040045 4.78952883 5.57830238
H 9.99361029 1.25191786 4.74574900
H 11.31642593 1.19053719 5.53470918
H 9.90258500 5.14140145 6.38736676
H 10.36507015 6.40628542 5.62157168
H 12.96934779 2.67590885 1.13895225
H 13.40518316 1.42752579 0.36992512
H 13.44288197 1.43112723 6.36250579
H 13.45599350 1.41227252 4.81183753
H 9.04858536 3.52874583 7.80822181
H 8.14829098 4.78896740 7.82472726
H 9.48954159 4.90889486 4.16241110
H 8.14171630 4.89322410 3.38621460
H 9.88205263 5.13361180 1.86918794
H 9.89823804 5.09081472 0.32231416
H 14.25657039 14.47493681 3.33597274
H 13.81646918 1.14634795 2.56978225
H 13.82929274 1.19917258 8.63857356
H 15.17122604 1.19088685 7.86994512
H 13.78822631 5.10495874 7.02267810
H 14.24447460 6.36764605 7.78980234
H 9.56900165 1.42879893 7.03181025
H 9.56727487 1.43002767 8.58197749
H 1.78803137 1.42577424 13.09962878
H 1.79611902 1.42561035 11.55411899
H 5.63632474 4.83590082 10.86524061
H 4.29683761 4.83416337 10.09102466
H 6.48384811 6.37118933 12.33123998
H 6.03434100 5.11733049 13.11362446
H 5.64346220 4.83977735 15.36566170
H 4.30286212 4.84148083 14.59162186
H 2.64588659 14.48602416 14.55805093
H 3.53020365 1.15259797 14.54536361
H 2.13476319 5.06450932 15.33423129
H 2.14323241 5.07827780 13.78964991
H 5.22058736 2.73450154 10.02388321
H 5.66913043 1.48111312 9.23476833
H 5.21960829 2.72924994 14.51772129
H 5.66474569 1.47747674 13.72597556
H 1.29227637 3.52361649 16.79481780
H 0.39437456 4.78235649 16.79869436
H 1.28662089 3.53090023 12.32383822
H 0.39575901 4.79659589 12.31458098
H 2.13548377 5.07315013 10.85302708
H 2.13522766 5.06523184 9.30855258
H 2.65578106 14.48218509 10.08118392
H 3.54507958 1.14607898 10.07162432
H 6.07823441 1.17982392 11.48197449
H 7.41078951 1.18129428 12.26523377
H 6.42515894 14.46297194 16.76033252
H 5.98905788 1.13032801 15.99443602
H 6.06741690 5.06583245 17.62075614
H 7.40663532 5.07281040 16.84379843
H 1.76510260 1.42342700 17.56923267
H 1.78005417 1.42427420 16.02508482
H 9.54406484 8.76621092 11.50367495
H 9.09912144 10.04387673 12.25208872
H 13.40266264 12.13259793 9.28013980
H 12.06035384 12.13713837 10.04331791
H 15.17505726 12.37332712 12.28404131
H 13.82949412 12.38230678 11.52398545
H 13.45797770 12.13203751 15.33181735
H 13.45424208 12.12510326 13.78393592
H 9.90359130 8.49675477 13.75979435
H 9.89546106 8.48690288 15.30610946
H 11.30560080 12.36089103 14.56544576
H 9.94779075 12.35213253 15.30718480
H 13.45146476 8.77006392 10.87168493
H 12.98369756 10.02108762 10.09510975
H 12.95047353 10.02293867 14.55957099
H 12.04960886 8.76636523 14.54521648
H 9.03826080 10.81742494 16.77501521
H 8.13987314 12.07885603 16.76592195
H 9.56568599 12.16345598 11.50348792
H 9.58085792 12.13618836 13.05121073
H 10.37085713 13.70441485 10.01723195
H 9.92409011 12.43733173 9.24610072
H 10.41539762 7.17488939 10.06239319
H 11.31565199 8.43375055 10.07160086
H 13.84600513 8.49303521 13.11663147
H 15.19492270 8.49125100 12.35522981
H 13.80517770 8.46655220 16.00989678
H 13.81139719 8.47369041 17.55297805
H 14.25244567 13.68611614 16.80690251
H 13.83878916 12.41474860 17.58575216
H 9.50831856 8.73523339 17.57543827
H 8.16460652 8.71807549 16.81171869
H 1.83353801 8.73127921 13.09884909
H 1.81325292 8.72416419 11.55131953
H 5.66926992 12.08979181 10.85835648
H 5.22119770 10.82456326 10.09162254
H 7.42751594 12.41832839 12.29849775
H 6.51905659 13.66649810 12.30072060
H 5.21603462 10.80884566 14.51005751
H 5.66331967 12.07891824 13.74446532
H 2.62232833 7.17523567 14.59247045
H 2.18445891 8.44450078 15.35865514
H 2.18271713 12.38410606 13.74775173
H 3.52009634 12.36189583 14.51907747
H 5.63809455 8.71818996 10.86913235
H 4.29715867 8.71811744 10.09551598
H 4.32150413 8.71132753 14.57942103
H 5.65864570 8.71528720 15.35306765
H 0.42379379 12.14578809 16.76425304
H 1.76486807 12.12912807 15.99505269
H 1.34957724 10.84105661 12.28953683
H 1.78563230 12.09968065 11.50620796
H 2.19139440 12.37509852 9.26451056
H 3.53036979 12.36585277 10.03919394
H 2.15579420 8.44430499 9.28179116
H 2.59856777 7.17858034 10.04839668
H 6.07462079 8.47665590 13.11191221
H 7.40302634 8.48736325 12.31772450
H 6.03621540 8.44453023 17.59156275
H 6.48856936 7.17371457 16.83417635
H 5.99944826 12.34915576 17.55325696
H 6.00634153 12.33316890 16.00381829
H 0.41524372 8.75900179 16.78908473
H 1.30471664 10.02312327 16.78920263
