381

O 9.11104504 1.77471478 12.30502661
O 12.95389584 4.47872112 10.07324358
O 14.25841239 5.41020521 12.30738859
O 12.96586949 4.52028646 14.55729956
O 10.38536876 0.85851779 14.55523905
O 10.37101170 5.41292319 14.56179348
O 12.96283253 1.74347528 10.03844527
O 12.97089025 1.77135448 14.53673330
O 9.10726415 4.48926327 16.81484909
O 9.07509074 4.53222470 12.31072907
O 10.36851653 5.42226821 10.07038017
O 10.37722314 0.83969213 10.05034832
O 14.26581349 0.86747225 12.28981589
O 14.25959875 0.84415125 16.77692002
O 14.27419493 5.41147143 16.80200899
O 9.08858000 1.75819793 16.78945030
O 9.06731832 9.05847848 3.31521161
O 12.98342686 11.80433380 1.10330803
O 14.26986472 12.70742279 3.35343269
O 12.96940851 11.78720165 5.59704715
O 10.37911065 8.13640799 5.55947043
O 10.36264708 12.70048973 5.57469210
O 12.96061624 9.06176064 1.07108635
O 12.97665302 9.04706282 5.57488664
O 9.07169873 11.79612994 7.83447549
O 9.07591755 11.80041080 3.33074383
O 10.39213676 12.71501265 1.10106201
O 10.38261439 8.16038767 1.09381142
O 14.26935031 8.14081657 3.33443745
O 14.25240505 8.15130227 7.84181844
O 14.26247658 12.72039410 7.82835711
O 9.09734811 9.04911025 7.80502860
O 1.26945015 9.00619345 3.28361512
O 5.20851704 11.80028795 1.10455545
O 6.50008320 12.75749422 3.33209325
O 5.20932138 11.86590089 5.58257908
O 2.63728900 12.71551132 5.59139413
O 5.25329020 9.06011869 1.07893138
O 5.20566043 9.07882196 5.49923496
O 1.34292825 11.84462452 7.80817580
O 1.34053514 11.80706985 3.33234532
O 2.61987987 12.70173095 1.09630352
O 2.65708855 8.12676390 1.02737280
O 6.48833749 8.17374318 3.32877134
O 6.52140485 8.16451267 7.80394916
O 6.49401581 12.73907000 7.84023670
O 1.38171962 9.03041182 7.90369353
O 1.30595777 1.73093160 3.33288813
O 5.21107546 4.51276183 1.08428558
O 6.46804417 5.42112139 3.35380446
O 5.15143069 4.52116935 5.59607581
O 2.62347779 0.86558453 5.58210096
O 2.49023167 5.42955634 5.66572972
O 5.20622903 1.76973310 1.07359508
O 5.20200177 1.78697428 5.56986025
O 1.30107191 4.52117545 7.87163521
O 1.30605297 4.45408074 3.32740313
O 2.61336098 5.38447439 1.08627653
O 2.61739848 0.84341198 1.09786684
O 6.49666121 0.88823539 3.32365950
O 6.51783896 0.88204163 7.81876782
O 6.49700857 5.41502568 7.83384102
O 1.34450875 1.76415876 7.83345182
O 9.09423100 1.74517569 3.32349990
O 12.96240133 4.50892216 1.09625605
O 14.24910601 5.42316765 3.33925187
O 12.96951702 4.51146849 5.58350977
O 10.39435154 0.84329322 5.56304007
O 10.36960862 5.39757234 5.56074796
O 12.97225819 1.77410887 1.07413146
O 12.96865433 1.77445247 5.58920588
O 9.10083868 4.50531112 7.83137954
O 9.05488876 4.47880292 3.34346932
O 10.37831507 5.41954986 1.12394174
O 10.39554488 0.85622793 1.08909511
O 14.24028604 0.85406484 3.33429418
O 14.28436541 0.84570416 7.80511715
O 14.25884249 5.38155374 7.84610044
O 9.11525265 1.76882768 7.79904263
O 1.31495949 1.78348763 12.31302919
O 5.18763245 4.49793201 10.07476557
O 6.46877567 5.41459364 12.32410437
O 5.18383217 4.50064196 14.56060767
O 2.61304674 0.85778544 14.53833373
O 2.59851894 5.41118200 14.55560364
O 5.22467083 1.75962611 10.08446211
O 5.21274452 1.76100270 14.53342150
O 1.32149344 4.47116981 16.79731405
O 1.30770124 4.51085252 12.31819941
O 2.60315712 5.43602447 10.09380928
O 2.62614558 0.88685936 10.08117430
O 6.52941106 0.84282267 12.30390065
O 6.49640276 0.83617114 16.77753432
O 6.52148297 5.40048993 16.77834083
O 1.31997005 1.72776523 16.79435986
O 9.08390832 9.06876879 12.30537480
O 12.96042825 11.81130827 10.06668491
O 14.25077724 12.72661558 12.29860233
O 12.96335091 11.79990625 14.55109826
O 10.38418149 8.16136401 14.53920275
O 10.38907416 12.72256076 14.53683164
O 12.97855757 9.07397911 10.08217882
O 12.96398308 9.05980861 14.54925775
O 9.09960832 11.81546750 16.79143230
O 9.08284619 11.80235473 12.29831879
O 10.37235140 12.70629201 10.06703696
O 10.38897979 8.17403455 10.06038554
O 14.27829046 8.15573409 12.32403577
O 14.26816191 8.15787390 16.77119269
O 14.26065144 12.70534772 16.79546549
O 9.09820544 9.06818638 16.78302202
O 1.33689996 9.06244511 12.31455181
O 5.19938721 11.80542855 10.07896119
O 6.49511231 12.70641792 12.32214939
O 5.18521308 11.81870464 14.56181734
O 2.62071815 8.14567966 14.53916626
O 2.59370258 12.71389433 14.56295573
O 5.24167456 9.06550208 10.07201866
O 5.20590915 9.07848097 14.54243579
O 1.30916446 11.78055649 16.80575800
O 1.31216034 11.81822324 12.31091544
O 2.61333731 12.74333583 10.08033575
O 2.63266569 8.15915556 10.09291963
O 6.51018036 8.14836716 12.31930484
O 6.51725321 8.15263483 16.77124705
O 6.49829511 12.69581747 16.80391555
O 1.32052029 9.04004755 16.78311253
H 9.10554587 2.73719486 12.32403916
H 9.56598084 1.48308333 13.10234844
H 12.04147585 4.78547684 10.07829793
H 12.92673654 3.51563928 10.06376932
H 15.16235620 5.07802196 12.28744506
H 13.81908560 5.07346980 11.51964583
H 13.43085095 4.85213901 13.78178832
H 13.44001973 4.84783458 15.32881237
H 11.30052395 1.15903278 14.54983749
H 10.40960322 14.49749188 14.54525375
H 9.94635497 5.07890683 15.35893908
H 11.27664708 5.08510429 14.57361395
H 12.06144830 1.40447765 10.01857639
H 13.40357797 1.42130954 9.24505778
H 13.42809048 1.48193191 13.74004910
H 12.98431528 2.73432784 14.53024191
H 9.55909849 4.78841734 17.61054527
H 9.11630005 3.52581077 16.82834321
H 8.16665172 4.84995580 12.33644797
H 9.50841676 4.85806968 13.10687477
H 10.37496315 6.38511715 10.08757055
H 9.90901182 5.13446216 10.86706001
H 9.93432191 1.14815610 10.84773756
H 10.36007701 14.47860388 10.07688385
H 14.25201840 14.50625855 12.28173180
H 13.80549635 1.15393842 11.49391033
H 14.24088742 14.48309651 16.76710491
H 13.80278425 1.14262575 15.98362607
H 15.17240552 5.06546039 16.82389349
H 13.83162268 5.09159829 17.59501174
H 8.18447739 1.42775703 16.76743194
H 9.52501215 1.43063314 15.99525615
H 9.53749836 8.76639344 2.52588422
H 9.08424160 10.02177333 3.30561510
H 13.41513250 12.12665119 1.90184380
H 12.07891606 12.13360067 1.12464545
H 14.24933157 13.66942177 3.37056049
H 13.81344679 12.40464821 4.14510789
H 12.05247360 12.07763176 5.58693724
H 12.95633637 10.82364034 5.58331331
H 9.91782371 8.44198556 4.77216553
H 10.35909895 7.17357816 5.53719884
H 9.90952188 12.41163567 6.37307028
H 10.37085766 13.66343767 5.59276841
H 12.97959158 10.02440041 1.06356890
H 13.42376850 8.76782559 0.28004208
H 13.42086989 8.72322557 4.78289091
H 12.07600918 8.71056262 5.54557134
H 9.05611402 10.83377548 7.82363014
H 8.15640702 12.09492932 7.83675379
H 8.17686983 12.14468995 3.34767549
H 9.51075999 12.12589095 4.12668129
H 10.38002401 13.67762226 1.12028143
H 9.92508007 12.41493716 1.88778332
H 11.29048688 8.48505599 1.06887710
H 9.95238157 8.48413311 0.29544342
H 15.18189268 8.46902356 3.30780223
H 13.83678683 8.47059177 2.54204926
H 14.24074432 7.19087192 7.82019338
H 13.80929425 8.44939970 7.04111705
H 13.79720513 12.37752939 7.05783505
H 13.79346002 12.39122106 8.60226920
H 9.57218133 8.71778587 7.03502744
H 9.56763311 8.73191022 8.58417684
H 1.75372282 8.73431508 2.50368676
H 1.32230929 9.96197628 3.31541422
H 5.63852776 12.14786205 1.89277639
H 4.30065896 12.12392916 1.11674485
H 6.49523019 13.72094312 3.34006167
H 6.04235732 12.47292974 4.12932736
H 5.20515518 10.90818280 5.55566763
H 4.28480625 12.14708854 5.58770842
H 2.17093965 12.41971913 6.38370460
H 2.62005494 13.67742944 5.60624360
H 5.23911871 10.02325295 1.06339534
H 5.70364820 8.77037967 0.27806462
H 5.64530892 8.74880436 4.69903988
H 4.29561650 8.83429988 5.42833314
H 1.76486915 12.16541501 8.61087017
H 0.43033972 12.14705920 7.83483856
H 1.77285227 12.12728836 4.12931474
H 0.43404380 12.12743823 3.36370479
H 2.15114352 12.36192287 0.32680842
H 2.14940841 12.37815434 1.87386189
H 3.57104934 8.42347615 1.04571974
H 2.66936054 7.16535046 1.05351622
H 7.39983283 8.49117208 3.31216046
H 6.07282027 8.49081092 2.51635368
H 6.08184835 8.49833748 7.02134668
H 7.43053944 8.48675110 7.77698440
H 6.03548486 12.45568104 7.04269790
H 6.50144779 13.70193357 7.82334602
H 0.47053968 8.73910000 7.85450852
H 1.35856505 9.98482331 7.83337984
H 0.40029818 1.40336559 3.30758809
H 1.74729736 1.40029628 2.54247349
H 5.63127988 4.84123612 1.88521442
H 4.30219404 4.83213566 1.09765417
H 6.47683600 6.38319399 3.36794859
H 6.00467321 5.13294316 4.14585653
H 4.23974289 4.81432245 5.61342405
H 5.13770217 3.55646212 5.58038548
H 2.13665658 1.17267641 4.81026769
H 2.15889453 1.19589434 6.35863485
H 2.05880248 5.10214413 6.47253622
H 2.32896873 6.36116436 5.65580943
H 4.29218855 1.46615217 1.08496574
H 5.18008554 2.73241944 1.07351584
H 4.30314630 1.43957489 5.55518156
H 5.63822328 1.46519092 4.77349426
H 0.38594985 4.82836925 7.89478005
H 1.73624116 4.86045268 8.66301055
H 1.31257315 3.48950941 3.33995120
H 1.73164583 4.74259715 4.13572847
H 2.14590366 5.05596962 0.31018640
H 2.13931699 5.05699277 1.85633220
H 2.15796064 1.13559529 0.30301450
H 2.61230243 14.48201555 1.07815455
H 7.40878945 1.19749767 3.30085256
H 6.06744541 1.21338777 2.52482705
H 7.42371332 1.20831085 7.79066284
H 6.07837437 1.20894569 7.02758418
H 6.03153933 5.11687530 7.04701267
H 6.49569095 6.37695620 7.80619001
H 1.33603740 2.72509616 7.86975966
H 1.79886691 1.46564284 8.62961145
H 9.56256595 1.41543791 4.09830862
H 9.56918716 1.42088670 2.55035077
H 13.39486151 4.84127670 1.89020549
H 12.05664833 4.83571532 1.11940811
H 14.28759654 6.38819952 3.33238548
H 15.15664089 5.10692675 3.32430466
H 12.06306229 4.83441303 5.55367039
H 13.40934623 4.84609866 4.79413399
H 9.95816091 1.18241874 6.35222597
H 11.29818848 1.17626647 5.58845161
H 9.89297891 5.05170822 4.79856574
H 9.91277735 5.07509045 6.34439792
H 13.43377571 1.47155240 0.28497868
H 12.98780844 2.73723260 1.05840296
H 13.43918216 1.46918313 6.37240405
H 12.98071625 2.73736864 5.61127507
H 8.19511867 4.82868698 7.85299206
H 9.53326536 4.84255169 8.62421188
H 9.04575019 3.51537218 3.32755569
H 8.13877761 4.77184113 3.34398912
H 9.91075756 5.12210770 1.91069593
H 10.36542165 6.38276050 1.13407453
H 11.29886357 1.19049617 1.05904525
H 9.95353410 1.17618480 0.29572454
H 13.77294883 1.18230274 2.55925527
H 13.77733069 1.19392579 4.10723163
H 15.20064876 1.13929030 7.81912428
H 14.29949392 14.48371229 7.80659833
H 13.79190129 5.06499012 7.06563967
H 13.77518659 5.05544383 8.61287531
H 9.55719499 1.45736713 8.59641968
H 9.12960144 2.73141834 7.83229031
H 0.40238760 1.47499614 12.30389559
H 1.28340684 2.74650096 12.31806592
H 5.65170448 4.80008850 9.28782823
H 5.21367201 3.53504513 10.05942728
H 6.00378898 5.08472521 11.54816225
H 5.99844879 5.07916500 13.09507813
H 5.20415254 3.53757006 14.57308611
H 5.65961271 4.79679695 15.34397299
H 2.17428878 1.19833798 13.75118976
H 3.51956219 1.18088007 14.51461902
H 2.62398842 6.37466788 14.55089037
H 3.51349024 5.11071419 14.55876854
H 5.70192936 1.42401623 10.85153684
H 5.68815195 1.43635795 9.30527352
H 5.69174068 1.43497443 13.76439745
H 5.67202267 1.42067939 15.30862384
H 1.33417212 3.50863310 16.76561301
H 1.77031715 4.78344961 16.00423987
H 1.78237477 4.84851729 11.55070853
H 1.77171987 4.83862300 13.09662724
H 3.51390944 5.12407598 10.08308166
H 2.63824179 6.40084618 10.09602466
H 2.18497120 1.21404625 10.87270269
H 3.53330709 1.20822251 10.10970375
H 6.54508423 14.48169219 12.30939964
H 7.44467388 1.14214106 12.30484988
H 6.03951272 1.14583741 17.56649282
H 6.48669333 14.47577801 16.81215094
H 6.08413470 5.08242150 17.57469594
H 7.42468716 5.06649756 16.80596584
H 1.75495365 1.40575474 15.99760643
H 0.41262332 1.40518524 16.76631146
H 9.52352939 8.73904634 13.09662756
H 8.18236616 8.72936426 12.32883520
H 12.94757398 10.84791823 10.06879259
H 12.04270606 12.10332423 10.06325773
H 13.78734921 12.39260562 13.07330618
H 13.77918338 12.39295272 11.52728903
H 13.42221157 12.09804337 15.34380341
H 12.97645344 10.83681498 14.57189642
H 10.40341840 7.19881032 14.54955993
H 11.30189000 8.45642344 14.54082835
H 11.29098358 12.38349617 14.51974111
H 9.95149797 12.39213654 13.74538755
H 13.45470388 8.74580630 10.85186280
H 13.44394775 8.74372322 9.30487470
H 13.43568316 8.72962230 15.32243007
H 13.44206787 8.73640956 13.77784580
H 9.57222804 12.14382233 17.56348372
H 9.56367332 12.14861507 16.01624290
H 8.16651519 12.09889519 12.31262002
H 9.05985301 10.83896114 12.30503544
H 9.90134568 12.37517831 9.29498304
H 9.90272345 12.37423162 10.84032274
H 11.29524792 8.50020625 10.09004396
H 9.94741052 8.50620760 10.84929495
H 14.29368085 7.19307340 12.31635533
H 15.19541578 8.45006937 12.31934221
H 15.18573882 8.45271665 16.78197129
H 14.28974593 7.19550663 16.78854089
H 13.82999683 12.38540040 17.59548781
H 15.16458270 12.37261359 16.81496550
H 9.10665797 10.03103608 16.76619206
H 9.55703250 8.77349387 15.98879129
H 1.79380456 8.76792398 11.51738795
H 1.33229597 10.02470431 12.29115726
H 5.22309598 10.84284705 10.05484769
H 5.65582199 12.11442305 9.28975751
H 6.01651457 12.39102685 13.09631897
H 6.02345659 12.37916431 11.54863688
H 5.62478165 12.14300058 15.35484262
H 4.27987553 12.14697685 14.58700002
H 2.18436185 8.47898552 13.74654882
H 3.52112187 8.48576690 14.52269852
H 2.58663176 13.67637000 14.53512525
H 2.14234238 12.41385949 13.76628945
H 5.70996670 8.73429210 9.30086355
H 5.70457670 8.73097080 10.84775340
H 5.66607374 8.77702458 15.33263822
H 5.20840528 10.04141563 14.56971470
H 1.32694197 10.81768503 16.77657577
H 1.76153560 12.09026065 16.01413927
H 1.74980580 12.15473069 11.52163262
H 0.40499341 12.13957793 12.28394933
H 2.64981058 13.70513224 10.08432897
H 3.52336943 12.42966325 10.08089448
H 3.53569041 8.48675033 10.06607116
H 2.18943883 8.48928952 9.29476168
H 6.04483197 8.46304420 13.10208504
H 6.47665581 7.18581191 12.34341396
H 6.53716939 7.19003378 16.77412680
H 7.43380302 8.44952249 16.77095547
H 6.06808687 12.36441517 17.59931887
H 7.40545115 12.37287417 16.81861634
H 1.80331121 8.71011178 17.54999377
H 1.78646343 8.71575795 16.00538354
