381

O 9.07092310 1.78594309 12.31429767
O 13.02434574 4.53574808 10.18015588
O 14.31340433 5.42940877 12.32902237
O 12.99199655 4.50592315 14.53799257
O 10.36810290 0.86169305 14.54913904
O 10.40290305 5.40744255 14.53205869
O 12.97940840 1.74134436 10.07698192
O 12.95147047 1.76067194 14.53481586
O 9.09442511 4.50300839 16.76607055
O 9.07606598 4.52094448 12.30223987
O 10.36267805 5.42757466 10.06850438
O 10.39061477 0.87536021 10.08552274
O 14.27855187 0.83889775 12.32246271
O 14.25107980 0.82805715 16.77156365
O 14.25521167 5.41757997 16.79655417
O 9.07523793 1.76544150 16.79471764
O 9.09711739 9.06062786 3.34305226
O 12.95945209 11.81276857 1.11216233
O 14.28525064 12.73891180 3.33590591
O 12.95880851 11.81815562 5.54566208
O 10.36671253 8.14583305 5.60655193
O 10.37151306 12.71972802 5.58552450
O 12.96638195 9.08081072 1.07574537
O 12.91196796 9.08001663 5.52852884
O 9.07673356 11.81567578 7.83581345
O 9.10303312 11.80335783 3.33740951
O 10.38338551 12.72447618 1.09382804
O 10.38737005 8.16925441 1.08353842
O 14.26201216 8.18554841 3.29889575
O 14.25673553 8.14636774 7.79766565
O 14.23740594 12.70202236 7.80371901
O 9.04073333 9.07356750 7.83222388
O 1.31594589 9.05335837 3.31867893
O 5.21409445 11.79587715 1.08385129
O 6.51708447 12.70930253 3.32811632
O 5.22350455 11.81493013 5.58037179
O 2.59869459 8.14628314 5.57632606
O 2.60472060 12.65629795 5.58355004
O 5.21025156 9.05334722 1.10338933
O 5.17125948 9.06792406 5.54723352
O 1.26489882 11.76627328 7.81477364
O 1.34631231 11.79580288 3.31311699
O 2.62645471 12.72250126 1.07410362
O 2.63583773 8.15267526 1.09848415
O 6.51087836 8.15313399 3.34094574
O 6.45622808 8.14373273 7.79758312
O 6.50113184 12.74912230 7.83931781
O 1.26756810 9.03809801 7.79161860
O 1.34815626 1.76005331 3.32784862
O 5.19551908 4.53055629 1.09125740
O 6.48181173 5.41580568 3.34342296
O 5.18061361 4.48790713 5.60188765
O 2.61716565 0.78795935 5.56105259
O 2.61957551 5.39262584 5.60562558
O 5.21716221 1.79323069 1.11611661
O 5.19035115 1.75447384 5.56905604
O 1.30951020 4.47380724 7.93635002
O 1.35946120 4.49814868 3.31796029
O 2.60497024 5.42031134 1.05930860
O 2.63286754 0.86739222 1.07790746
O 6.51476241 0.85607139 3.34662755
O 6.48409397 0.88645155 7.83837154
O 6.50157221 5.40230606 7.81485065
O 1.38863769 1.69386736 7.84045234
O 9.09662026 1.78086358 3.34499948
O 12.96856763 4.49677810 1.08827468
O 14.30345252 5.43443649 3.27103705
O 12.92207617 4.56735080 5.54628426
O 10.38592597 0.86600297 5.58375070
O 10.38980394 5.42867834 5.58834102
O 12.97020070 1.74863953 1.07706760
O 13.00034636 1.74955520 5.60293011
O 9.08516608 4.50413783 7.80418545
O 9.09403375 4.51849865 3.31086044
O 10.38790934 5.42632916 1.05666333
O 10.36461316 0.85597401 1.09280845
O 14.28113588 0.87229763 3.32234966
O 14.28495015 0.82952657 7.81656912
O 9.09871983 1.75475847 7.83174321
O 1.33267197 1.74806337 12.32654437
O 5.18825881 4.51038297 10.06019347
O 6.49636700 5.42508308 12.28169131
O 5.21439388 4.49658369 14.53030223
O 2.62865146 0.84115350 14.55481552
O 2.61741591 5.39330224 14.56457117
O 5.17819326 1.77089535 10.08424072
O 5.21195433 1.75236736 14.57260917
O 1.29679777 4.48906319 16.79043121
O 1.31939589 4.49127651 12.32408967
O 2.61730435 5.43313006 10.05848185
O 2.61350020 0.80075040 10.10174925
O 6.48084222 0.85395856 12.31006088
O 6.49074999 0.86477167 16.82035736
O 6.50314113 5.40127726 16.78410328
O 1.30145622 1.74875028 16.78349959
O 9.09101541 9.08365414 12.32994183
O 12.97723537 11.82061554 10.07641315
O 14.26683924 12.69951103 12.32917174
O 12.94139782 11.80486650 14.56352344
O 10.39678189 8.15836610 14.56108950
O 10.36231135 12.72447120 14.54600515
O 12.91723508 9.07482824 10.07273493
O 12.97770061 9.07129723 14.58078873
O 9.08517293 11.81503748 16.79257921
O 9.07951327 11.82656970 12.29859056
O 10.38064706 12.74618328 10.06710251
O 10.34872707 8.18744906 10.06179894
O 14.24986182 8.18868537 12.31986919
O 14.29155787 8.16898520 16.80589550
O 14.25507433 12.68437931 16.79889772
O 9.08099857 9.07192680 16.80293957
O 1.31817038 9.02413143 12.32571099
O 5.16979802 11.80124350 10.05537554
O 6.48101165 12.71416156 12.28369569
O 5.22531708 11.78970858 14.54250073
O 2.63712479 8.13643705 14.56474980
O 2.63914605 12.69780330 14.54320371
O 5.19247456 9.05737407 10.05143705
O 5.22803236 9.05156741 14.56215914
O 1.32192892 11.81698030 16.78381671
O 1.31631551 11.76340260 12.33480380
O 2.56815354 12.66140175 10.07581272
O 2.60700904 8.16078527 10.04389198
O 6.50744259 8.17283042 12.29296868
O 6.49430745 8.14396373 16.80911423
O 6.49797564 12.72414053 16.78675028
O 1.35435466 9.08004647 16.80408908
H 8.15869436 1.47922602 12.31140311
H 9.04294030 2.74906579 12.30925911
H 12.99785918 3.58025080 10.11628232
H 12.11681438 4.83295375 10.10866486
H 13.82935576 5.11467540 11.54803135
H 14.28013799 6.38972987 12.30724624
H 13.45107635 4.83406292 15.31793737
H 13.47136126 4.84115615 13.77151070
H 11.27428422 1.18853854 14.52231852
H 9.92891944 1.19911934 13.76108717
H 11.31899632 5.10845213 14.53034488
H 10.42546487 6.36980408 14.54025892
H 13.45364180 1.40917639 10.84535567
H 13.44596646 1.41844334 9.30101584
H 12.97761078 2.72354670 14.52112415
H 13.41992843 1.46015006 13.74851621
H 9.56787723 4.83143886 15.99402976
H 9.56444122 4.83557003 17.53856689
H 9.56023699 4.84058459 13.07105032
H 9.54584769 4.84310797 11.52388735
H 10.34358724 6.38814481 10.04158051
H 9.92228160 5.12038237 9.27024994
H 9.95429537 1.21000089 10.87569933
H 11.29735480 1.20339633 10.10224723
H 15.19402551 1.13676130 12.32814992
H 14.29845365 14.47837764 12.32926802
H 13.79028467 1.12888376 15.98111279
H 14.23561946 14.46738052 16.75765507
H 13.79628264 5.11350545 17.58752478
H 14.25413281 6.37969640 16.82500841
H 9.09403214 2.72812475 16.76305122
H 9.53264865 1.45730461 16.00481825
H 9.54805929 8.75802102 4.13806969
H 9.11312333 10.02346333 3.36438270
H 12.05829614 12.15347020 1.13144910
H 13.40447845 12.14829810 1.89720863
H 14.31352128 13.70239615 3.33363402
H 15.19756194 12.43300222 3.32648072
H 13.42713422 12.12517431 4.76162668
H 12.95228195 10.85645364 5.50891406
H 10.36180694 7.18017035 5.62032362
H 9.89772690 8.44212118 6.39303587
H 9.94012214 12.38646602 6.37932940
H 11.27780124 12.39476802 5.59929445
H 12.93610201 10.04389574 1.08912189
H 12.05234787 8.77515291 1.07350736
H 12.00801909 8.74227077 5.56830672
H 13.35628989 8.75854955 6.31364712
H 9.51903692 12.14984027 8.62345971
H 8.17814577 12.16213386 7.85627653
H 9.57181607 12.13760544 2.56536010
H 9.56252691 12.14147636 4.11375399
H 9.92604710 12.41785211 0.30354822
H 10.35838925 13.68760127 1.07029076
H 9.92087287 8.48695965 1.86352136
H 9.90522850 8.49686198 0.31620322
H 13.79462417 8.50812394 2.51972459
H 13.76883443 8.49827567 4.06299192
H 15.18388665 8.42923708 7.79160902
H 14.25324905 7.20195153 7.76809275
H 14.23517599 13.66630572 7.79155384
H 13.78003147 12.41281322 7.00689952
H 8.12513595 8.77656460 7.81805196
H 9.02459917 10.03669369 7.82789546
H 1.74200400 8.72162772 4.11518202
H 0.40329550 8.74405129 3.33623722
H 4.29998528 12.09855056 1.08025605
H 5.18814639 10.83301052 1.08666075
H 6.07772841 12.37856173 2.53779115
H 7.42058814 12.37580529 3.30564779
H 5.69236308 12.14743493 4.80748535
H 5.68491918 12.15337058 6.35445281
H 3.51121704 8.45786334 5.56215297
H 2.63491764 7.18490083 5.58693555
H 2.18541006 12.33687484 4.77672089
H 3.51669258 12.34786392 5.56589650
H 5.64911575 8.72927222 1.89716137
H 4.30601758 8.72106479 1.12935614
H 5.20223941 10.03057325 5.54322010
H 5.64660168 8.77186915 4.76299699
H 0.36596180 12.11413034 7.78341203
H 1.71754462 12.09307383 7.03002844
H 1.79853076 12.09833636 2.51817926
H 1.34628320 10.83340346 3.28762994
H 2.62374412 13.68540370 1.05883404
H 2.16578232 12.43232640 0.27948062
H 2.16102194 8.44699483 1.88318841
H 2.60549180 7.18944592 1.10095530
H 6.52837203 7.19010516 3.34340836
H 7.42722394 8.45028726 3.34297779
H 6.46101155 7.18069017 7.77884905
H 6.00141725 8.43865577 7.00206346
H 6.47958887 13.71201721 7.86078146
H 6.02750460 12.44238820 8.61921690
H 1.74412810 8.75262430 7.00325786
H 1.26442493 10.00346437 7.78004929
H 1.81798748 1.43441750 2.55250160
H 1.80094211 1.40352402 4.09916408
H 4.28948097 4.85529454 1.05182931
H 5.64060238 4.84476195 0.29712356
H 6.01744746 5.07891123 4.11548628
H 6.00610315 5.09865247 2.56840314
H 5.65925967 4.78217447 6.38506537
H 5.20067050 3.52443501 5.60732572
H 2.60206772 14.42693835 5.58240015
H 2.18209896 1.08665316 6.36577199
H 3.52414213 5.05542043 5.63595709
H 2.17510229 5.07151868 6.38964816
H 5.22209908 2.75616596 1.13699012
H 5.67217026 1.49052898 1.90900588
H 4.29516584 1.40143171 5.53841950
H 5.64529314 1.42854310 4.78465242
H 1.76026373 4.83417761 8.71722285
H 0.38501221 4.62261783 8.06414942
H 1.80664550 4.79238597 4.11614069
H 1.36391748 3.53491223 3.34063297
H 2.12492568 5.08389519 0.29442141
H 2.15594576 5.07990701 1.84051498
H 3.53378207 1.20675638 1.05801692
H 2.18856563 1.19464436 0.28870023
H 6.54238568 14.49575154 3.33095192
H 7.42892885 1.16078891 3.34838620
H 6.01981937 1.20399519 7.05720064
H 6.00895280 1.22313499 8.60505906
H 6.07321062 5.07795891 8.61355231
H 7.41019600 5.07916231 7.83132982
H 1.41793486 2.65072438 7.87962901
H 1.82103259 1.37828354 8.64313791
H 9.55826551 1.48779316 4.13814377
H 9.10953556 2.74413085 3.35402284
H 13.44138308 4.79552092 1.87362534
H 12.97631406 3.53431424 1.10445139
H 14.31631101 6.39584574 3.27524389
H 15.21807811 5.13918370 3.28794282
H 12.97616310 3.61234402 5.57994406
H 13.40459193 4.83806745 4.76493608
H 9.93392181 1.16217490 6.38108541
H 10.36726275 14.50597542 5.60214199
H 11.30646369 5.11109215 5.56393681
H 9.96469302 5.10695956 4.78903123
H 13.39430643 1.41273259 0.28065315
H 12.06338876 1.42528359 1.06732936
H 13.42028029 1.43563170 4.79702762
H 12.09121117 1.43578799 5.58178878
H 9.55609996 4.80076999 7.01691747
H 9.10904776 3.54202711 7.79466233
H 9.52278578 4.84875838 2.51480822
H 8.18850661 4.84171674 3.29840206
H 10.41704663 6.38863604 1.06274037
H 11.30055209 5.11866093 1.07550648
H 9.90391842 1.18898598 1.87041074
H 9.89408897 1.19222738 0.32260058
H 15.18265937 1.20894217 3.30322145
H 13.84367428 1.19381991 2.52710550
H 15.19258166 1.14265758 7.79594109
H 13.84914234 1.17398736 7.02712667
H 8.19090778 1.43750789 7.85777228
H 9.53248083 1.43800370 8.63130971
H 1.79570354 1.45687433 13.11973908
H 1.33434521 2.71098855 12.34005420
H 5.65173783 4.81264334 10.84957397
H 5.18749001 3.54732383 10.09128466
H 6.52164033 6.38775182 12.28455389
H 7.41332309 5.12726711 12.29143153
H 5.64088192 4.83587715 13.73653325
H 4.30756125 4.82014951 14.52217188
H 3.54254602 1.14584014 14.56721441
H 2.65802723 14.48071085 14.54638783
H 2.14389440 5.06411359 13.79317511
H 2.14433811 5.06714160 15.33773910
H 5.62585475 1.43994874 10.87100892
H 4.28312255 1.41677352 10.11121189
H 5.66855893 1.46853414 15.37227212
H 5.22424676 2.71523743 14.57220554
H 0.38314953 4.79530181 16.78998738
H 1.26954899 3.52619208 16.78558365
H 1.75926328 4.83096439 11.54095056
H 0.41638061 4.83471709 12.30572837
H 3.53225221 5.12606070 10.06051645
H 2.64521053 6.39694865 10.05343082
H 2.15220565 1.10942542 10.88977646
H 2.58753330 14.44017818 10.11839782
H 6.47256734 14.49287369 12.31835200
H 6.03178945 1.14235181 13.11177008
H 7.39806823 1.18871144 16.83178873
H 6.06485930 1.20213601 17.61576395
H 6.07117577 5.07665327 15.98721568
H 7.40913608 5.07446943 16.76193670
H 0.40051628 1.40835277 16.76089444
H 1.74288632 1.41961575 15.99356598
H 9.55770232 8.78117715 13.11635870
H 9.10520158 10.04638622 12.34723695
H 12.96186632 10.85869813 10.05464503
H 13.41907802 12.10974573 9.27098143
H 13.83859992 12.38196185 11.52700904
H 15.16569882 12.35479345 12.31910877
H 12.03845577 12.13964627 14.53397609
H 13.38623052 12.13032870 13.77386513
H 11.30169886 8.48707887 14.59409453
H 9.95626990 8.47889535 15.35456178
H 9.90570894 12.43127642 13.75000064
H 10.35555311 13.68789503 14.52935358
H 13.35424278 8.73311553 9.29218067
H 12.00845995 8.74957759 10.04830645
H 13.44961850 8.77454626 15.36652857
H 12.98151986 10.03445342 14.59852639
H 9.51709373 12.13884409 15.99461162
H 8.18235047 12.15016066 16.77285489
H 9.51915390 12.15752820 11.50793709
H 8.17101834 12.14431376 12.26736247
H 10.40897660 13.70979763 10.07487608
H 11.29411844 12.44341935 10.07389123
H 9.88844910 8.50799790 10.84463196
H 9.86286145 8.51480290 9.29700720
H 13.76067964 8.51272276 11.55807691
H 13.79032462 8.50858528 13.10388726
H 15.19872238 8.48985288 16.83195437
H 13.84982028 8.50741657 17.59208399
H 13.77482188 12.35630297 16.03127027
H 13.78672535 12.36918515 17.57913890
H 8.16786292 8.76637669 16.79730233
H 9.05375517 10.03464383 16.79180403
H 0.40531231 8.71581954 12.30192106
H 1.74399768 8.70898654 11.52313977
H 5.16549129 10.83840652 10.04781766
H 4.24853057 12.08136545 10.05764717
H 6.02816479 12.37293294 13.06225785
H 6.00137881 12.38388078 11.51665402
H 5.67923387 12.10230720 15.33246278
H 5.24474506 10.82696451 14.57239566
H 2.61933326 7.17347359 14.54911110
H 2.16975463 8.43016833 13.77593934
H 3.54293616 12.36522240 14.56938980
H 2.20066876 12.38207559 15.34056316
H 5.65516864 8.72119412 9.27635748
H 5.66998067 8.73881374 10.82527953
H 4.32305554 8.72312639 14.57742000
H 5.65641496 8.71671918 15.35767649
H 1.31257651 10.85383724 16.79169525
H 0.40186360 12.10217759 16.78444559
H 1.33310440 10.80098579 12.36261645
H 1.78724674 12.07308587 13.11638465
H 2.10948349 12.32644454 10.85433243
H 2.08861188 12.34222744 9.30512852
H 3.51097867 8.49576256 10.03138166
H 2.17372779 8.49100365 9.25144213
H 7.41112515 8.50544912 12.32279420
H 6.07394745 8.48672678 13.09357569
H 6.03870081 8.43614242 17.60621298
H 6.49209249 7.18092812 16.82239044
H 6.04461091 12.41417435 17.57797176
H 6.48059914 13.68675195 16.81811215
H 1.82575846 8.75004440 17.57625152
H 1.81729206 8.74261482 16.03009288
