381

O 9.09734616 1.79151802 12.29652381
O 12.95516738 4.48630370 10.04323127
O 14.22751173 5.39450656 12.31268005
O 12.96457128 4.51489532 14.56518960
O 10.32558310 0.84535576 14.56369987
O 10.37738907 5.41657316 14.57585362
O 12.98779339 1.72133647 10.06743133
O 12.88477741 1.80028004 14.58082259
O 9.06896102 4.49524309 16.79971948
O 9.09007345 4.53355620 12.32612144
O 10.37963516 5.40809042 10.08345053
O 10.38991093 0.87154783 10.06559841
O 14.23182018 0.93584354 12.30947126
O 14.21685633 0.85700250 16.79916448
O 14.28628821 5.40719477 16.78797563
O 9.06485178 1.75829115 16.81777595
O 9.09268117 9.08715946 3.33341350
O 12.97740453 11.81928897 1.10084048
O 14.26989088 12.69673747 3.34703262
O 12.97285939 11.77625438 5.57724165
O 10.36030050 8.17305984 5.57378887
O 10.39050792 12.71869317 5.59738774
O 12.97066977 9.07050761 1.11562912
O 12.96707220 9.03991821 5.57350561
O 9.10671096 11.79340949 7.83304054
O 9.08433409 11.82200897 3.35212569
O 10.38238903 12.70604978 1.10467180
O 10.37145861 8.16965266 1.08890208
O 14.28198787 8.14016577 3.33951382
O 14.26764990 8.16101012 7.81561357
O 14.25419773 12.70653521 7.79808453
O 9.08686990 9.06068676 7.82921530
O 1.33257318 9.05596439 3.30938216
O 5.21640448 11.79632761 1.09646870
O 6.50305658 12.73433776 3.32667021
O 5.22095986 11.81036228 5.56341743
O 2.60083479 8.15283238 5.56979661
O 2.63087434 12.73510653 5.62549565
O 5.20058286 9.05631907 1.10707781
O 5.19767421 9.07270734 5.58669349
O 1.32070744 11.82304084 7.83824454
O 1.33203120 11.79541471 3.38255592
O 2.61906563 12.70506442 1.12373835
O 2.61905902 8.13842052 1.06590816
O 6.50785625 8.15485258 3.35245719
O 6.48568670 8.17362866 7.82664853
O 6.51449260 12.71137928 7.79697022
O 1.31639983 9.07064363 7.81605875
O 1.34056253 1.77106006 3.33685957
O 5.20484756 4.48808459 1.11011676
O 6.52024103 5.40943690 3.34028180
O 5.20899676 4.53134772 5.58019371
O 2.60769257 0.87631663 5.59198128
O 2.60279426 5.41130517 5.57514369
O 5.16944891 1.75220934 1.09506422
O 5.18435461 1.79428079 5.58350221
O 1.33074298 4.48515047 7.82318801
O 1.32221690 4.50722110 3.31992699
O 2.62823542 5.40187880 1.07308375
O 2.59080054 0.85148817 1.08115790
O 6.46607759 0.87535553 3.33390686
O 6.52938826 0.85038547 7.78315728
O 6.52577333 5.43740336 7.80978206
O 1.31819291 1.72215736 7.84417934
O 9.05714065 1.76153724 3.33576319
O 13.00166436 4.48056359 1.07644078
O 14.26548622 5.40189085 3.34034292
O 12.95787682 4.52580679 5.58762277
O 10.39160688 0.85454563 5.55305402
O 10.37512908 5.43959711 5.59127110
O 12.96905026 1.73932934 1.12536681
O 12.97771640 1.78079427 5.59721351
O 9.10114720 4.50194865 7.83524382
O 9.11420713 4.51166903 3.32891658
O 10.41034705 5.41923317 1.07275796
O 10.38669339 0.84360324 1.11488798
O 14.28821887 0.83653188 3.36946091
O 14.26363068 0.83633935 7.82139955
O 14.28104783 5.41968845 7.82736293
O 9.11659006 1.76148909 7.80248629
O 5.23302665 4.51120477 10.03727221
O 6.50318900 5.42606165 12.29659286
O 5.20045247 4.51620883 14.51802129
O 2.59206064 0.81686832 14.64821993
O 2.60592699 5.36090508 14.51296624
O 5.26835604 1.75749453 10.02948354
O 5.23832610 1.77107273 14.53807904
O 1.31763160 4.47826806 16.78652513
O 1.33900990 4.45143808 12.17055414
O 2.64361061 5.37712733 10.03013775
O 2.60998141 0.96218394 10.06872238
O 6.51609778 0.85887267 12.26047645
O 6.46303707 0.85474201 16.79498364
O 6.47823531 5.41431786 16.79194202
O 1.30707877 1.74635080 16.80045304
O 9.09248261 9.06413312 12.31480320
O 12.96759709 11.84049933 10.05771594
O 14.25266525 12.71735846 12.29323900
O 12.97153855 11.77676245 14.56010243
O 10.38262850 8.15301403 14.54143362
O 10.38164986 12.70017884 14.58452764
O 12.97710662 9.08465274 10.05458518
O 12.97834701 9.03838614 14.55741536
O 9.08208891 11.78763137 16.82599438
O 9.08741753 11.80670387 12.32842829
O 10.37669333 12.72666229 10.08464100
O 10.39529735 8.15210207 10.06993500
O 14.25739693 8.14347681 12.30128866
O 14.26038054 8.14210001 16.80640572
O 14.25154265 12.73150399 16.80263096
O 9.07133889 9.04667202 16.78704853
O 1.31731777 9.02393265 12.31483222
O 5.20907287 11.81018568 10.03535279
O 6.50365812 12.72839870 12.27826537
O 5.22307452 11.82363849 14.54443577
O 2.61639241 8.13295517 14.55014426
O 2.62486270 12.62348021 14.56516480
O 5.18909775 9.06718986 10.07412886
O 5.20534924 9.08105317 14.55700960
O 1.29981017 11.79542351 16.83067159
O 1.29810149 11.76353710 12.30063925
O 2.63552687 12.74771329 10.09074018
O 2.60621184 8.13401352 10.06530328
O 6.50103995 8.16532546 12.31030772
O 6.48235014 8.16105417 16.79566005
O 6.49678482 12.71023983 16.79477776
O 1.31416784 9.05921987 16.78035032
H 9.52907188 1.47849247 13.09848923
H 9.10103888 2.75424732 12.33530603
H 12.03932426 4.78617335 10.05115778
H 12.93406554 3.52572860 10.04095678
H 14.23368594 6.35648581 12.28307160
H 13.77411605 5.09884935 11.51793183
H 13.45334813 4.83937803 15.32988620
H 13.42135786 4.84143170 13.78076551
H 10.36474345 14.48526591 14.56774249
H 11.23528910 1.16086445 14.57577385
H 11.28278173 5.08836394 14.59535899
H 9.93884611 5.08127872 15.36536272
H 12.07695140 1.40369648 10.05202863
H 13.41230555 1.39259751 9.26624184
H 12.91557076 2.76525099 14.56516902
H 13.33546460 1.50411712 13.78843876
H 9.03701362 3.53256415 16.80523375
H 8.15664366 4.80440171 16.79926345
H 9.52121602 4.86177611 13.12261090
H 8.18263096 4.85725899 12.34233315
H 9.92146534 5.12538482 10.88272594
H 10.37905711 6.37117994 10.09137827
H 9.92387871 1.19039033 9.28508247
H 9.92290465 1.21831655 10.83416358
H 13.81082146 1.24258321 11.49108571
H 15.07248080 1.36450646 12.36382826
H 13.76602143 1.17527425 17.58858812
H 13.73689921 1.20794734 16.04377353
H 15.19070515 5.07257442 16.80334539
H 13.85366982 5.06229678 17.57647449
H 9.54044280 1.42798204 17.58658684
H 9.52269249 1.42215799 16.04021309
H 9.10119787 10.05016234 3.31417399
H 9.54035367 8.78511190 2.53572110
H 12.07150179 12.14582175 1.08271246
H 13.40662137 12.14953109 0.30399449
H 14.26333105 13.65973719 3.33840754
H 13.81718306 12.40909183 2.54645603
H 12.98269010 10.81293588 5.55453651
H 13.42649230 12.07779429 4.78239081
H 11.27039882 8.48732946 5.55656923
H 9.93484502 8.50670211 4.77595363
H 11.29011830 12.37539254 5.60339612
H 9.96126180 12.38606270 6.39305298
H 12.05266537 8.78029929 1.10650218
H 12.95599075 10.03327437 1.10886862
H 13.44446759 8.70877828 4.80531078
H 13.43510892 8.71491355 6.35038143
H 9.11408488 10.83008739 7.85392813
H 9.54858703 12.09569245 8.63294093
H 8.18229393 12.16025157 3.36498950
H 9.51888339 12.14391643 4.14857752
H 9.90544109 12.37022480 0.33764090
H 9.91783007 12.38198328 1.88333543
H 10.37751346 7.20699772 1.06948840
H 9.91429419 8.45610154 0.29074683
H 13.83737043 8.47662253 2.55415355
H 15.18639334 8.47029897 3.30891380
H 14.29548948 7.19833746 7.83046145
H 15.18223711 8.46366521 7.81530129
H 15.16069089 12.38139322 7.79268836
H 13.82689745 12.35816895 7.00694121
H 8.17843120 8.74128295 7.81400805
H 9.51113041 8.73981370 7.02604468
H 1.78865289 8.76345218 2.51308871
H 1.35128319 10.01869471 3.31099589
H 5.66445660 12.09304432 0.29690418
H 5.22684542 10.83341341 1.08314615
H 6.05147202 12.42823537 2.53237282
H 6.47298851 13.69690529 3.31156457
H 5.22029117 10.84708915 5.54794237
H 5.66937668 12.10542969 4.76349877
H 2.58720025 7.18988707 5.55862006
H 2.15417513 8.44527191 4.76820498
H 2.65366031 13.69763888 5.60637697
H 3.54496587 12.43283023 5.60098321
H 5.63564824 8.72637544 1.89992613
H 4.29753284 8.72085587 1.11817731
H 5.62338101 8.74566772 6.38679113
H 4.29459466 8.73904850 5.59473021
H 1.80003000 12.15809920 7.07177683
H 1.78489219 12.15178054 8.61325481
H 1.75764047 12.13217115 4.17703358
H 0.42534749 12.11975831 3.38906881
H 3.52454666 12.37782890 1.13051779
H 2.19734845 12.38131823 1.92564517
H 2.60940990 7.17513688 1.04543674
H 2.16167723 8.43896162 0.27335421
H 7.40711696 8.49900589 3.36237068
H 6.07409102 8.48183607 4.14736594
H 6.03115371 8.46369990 8.62478592
H 6.48904512 7.21030082 7.84383745
H 7.41849415 12.38003279 7.78643509
H 6.08524941 12.38212465 6.99946872
H 1.77271403 8.77260783 7.02178389
H 1.33431206 10.03267475 7.80298981
H 1.34481603 2.73402862 3.30716265
H 1.78127261 1.46600499 2.53577006
H 5.20900345 3.52473332 1.12158114
H 5.67339405 4.78232484 1.89762251
H 7.43786635 5.11763878 3.33376499
H 6.53762909 6.37232991 3.33724628
H 5.68101665 4.84900458 4.80272662
H 5.68494580 4.86731622 6.34714620
H 2.17957271 1.19692228 4.78983065
H 3.50915652 1.21692537 5.57690638
H 2.17485805 5.07123504 6.36782943
H 3.51181411 5.09424180 5.59170478
H 4.26215557 1.42785844 1.06621002
H 5.60545477 1.42796910 0.29931458
H 5.21148340 2.75717548 5.60649843
H 5.66187988 1.48295506 6.35968805
H 1.33713383 3.52449050 7.84388434
H 1.80026601 4.78587147 8.61142517
H 0.41528578 4.83134644 3.33963121
H 1.75192416 4.83616651 4.11609913
H 2.18824113 5.08223076 1.86711543
H 3.53273939 5.07139463 1.10396747
H 2.12863802 1.13979405 0.28422087
H 2.58694795 14.49107853 1.07448162
H 5.99584108 1.20663966 4.10575141
H 5.99032257 1.19264307 2.55799938
H 6.51492334 14.48946655 7.80201389
H 6.08863053 1.14846065 8.58577241
H 7.42866811 5.10275532 7.83498479
H 6.08533342 5.10058579 8.59766783
H 1.75809456 1.41244926 7.04278549
H 0.41169662 1.39577023 7.81011201
H 9.05555070 2.72430832 3.33338308
H 8.13591783 1.47997416 3.33419747
H 13.00139222 3.51818769 1.11314943
H 13.44406196 4.78632971 1.87507875
H 14.25929140 6.36510801 3.35143088
H 13.80021015 5.11388507 4.13260571
H 13.40011053 4.85230768 6.37788008
H 12.05644048 4.86497151 5.61179629
H 9.91955205 1.14492951 4.76517051
H 10.38604242 14.49348290 5.54527067
H 10.34986531 6.40254093 5.60540522
H 9.91953804 5.13480683 6.38287945
H 12.06303648 1.41256894 1.15627006
H 13.41319443 1.40876272 1.91254235
H 12.94838723 2.74378712 5.59551195
H 12.06404317 1.47686800 5.57567397
H 9.12030042 3.53913945 7.83640707
H 9.55504582 4.79310462 8.63314410
H 9.57658498 4.84430362 4.10499078
H 9.58862488 4.83591664 2.55650672
H 9.95789458 5.08311698 0.29200607
H 11.31159862 5.08265804 1.04165376
H 9.91061832 1.14294535 1.89649862
H 10.36911235 14.48268604 1.12993266
H 15.19077688 1.17259618 3.37516192
H 13.85484329 1.18246015 4.15612544
H 13.80706092 1.15647907 7.03484011
H 14.24698312 14.47532810 7.78076537
H 15.18253024 5.08170025 7.84569495
H 13.84157934 5.08483309 8.61574258
H 8.21215350 1.43174206 7.77207403
H 9.55455200 1.43662898 7.00809207
H 5.22420227 3.54966803 10.03350816
H 4.31230584 4.79936584 10.03850107
H 6.04483050 5.09576321 11.51704652
H 6.02198891 5.09696672 13.06450733
H 4.28572602 4.82130421 14.53969849
H 5.62204917 4.84185572 15.31932484
H 2.63470306 14.46377969 14.60636447
H 3.49315827 1.13381062 14.58806263
H 2.58804801 6.32152663 14.53426116
H 2.15148134 5.06175104 15.30649522
H 4.36312425 1.44335784 10.04557030
H 5.69426396 1.42862238 10.83153628
H 5.68171643 1.47346176 13.73967060
H 5.22877950 2.73290531 14.50778435
H 1.32613604 3.51404642 16.80163324
H 1.78818750 4.77310005 17.57252315
H 1.76784867 4.71007402 12.98764223
H 0.43946495 4.77381009 12.23437425
H 2.62167190 6.33883491 10.05350731
H 2.16838147 5.07120876 10.81869529
H 2.24594806 1.44555085 10.79477110
H 2.12953373 1.24611085 9.27505935
H 6.54156215 14.49776511 12.26911591
H 7.42927875 1.16382867 12.27049175
H 7.36834293 1.18041568 16.78918390
H 6.04391999 1.19150445 15.99387259
H 6.46490417 6.37678667 16.81403962
H 6.02523096 5.11237996 17.58564945
H 1.75478532 1.40450054 16.01031872
H 0.40095543 1.42957344 16.76988850
H 9.56251857 8.72751538 13.08603146
H 9.56388552 8.73959777 11.54094457
H 12.05925073 12.16140122 10.04265205
H 13.39357123 12.16044749 9.25536104
H 13.79021490 12.43397176 11.49526169
H 14.24946828 13.67464822 12.28896435
H 12.99024503 10.81324029 14.54537756
H 13.42012921 12.07439355 13.76391051
H 11.29929681 8.44875027 14.55413632
H 10.40517124 7.19006722 14.55698094
H 9.94779427 12.37379040 15.38012402
H 11.28325988 12.36302354 14.59956105
H 13.43427479 8.78499448 9.26148639
H 12.98509037 10.04654023 10.03500370
H 13.44626567 8.70815375 13.78298593
H 13.44506984 8.70674349 15.33221672
H 8.16944942 12.09596163 16.80963993
H 9.05075163 10.82503482 16.81173466
H 9.10037786 10.84345531 12.34243610
H 9.53879978 12.09913658 13.12722023
H 9.92635215 12.42469645 10.88076967
H 10.35483640 13.68905738 10.09940447
H 11.29614260 8.49108086 10.04371774
H 9.95301068 8.47518785 9.27812136
H 13.82971053 8.48933965 11.51155687
H 15.16824330 8.45657449 12.28423179
H 13.80439732 8.44179471 17.59921182
H 14.26014328 7.17861749 16.82978034
H 14.22577517 13.69473069 16.77375295
H 13.80585884 12.41622459 16.01037910
H 8.16535135 8.71929250 16.76467412
H 9.50746607 8.72673701 15.99060349
H 1.77825989 8.72274003 13.10614187
H 1.32811257 9.98595165 12.33697250
H 5.66862162 12.09340747 9.23764351
H 5.20538602 10.84659964 10.02965539
H 7.40352275 12.38535178 12.27858758
H 6.07732054 12.39348828 11.48291240
H 4.30573906 12.12111779 14.52993396
H 5.64215963 12.16078126 13.74684945
H 3.51856325 8.46690129 14.57200621
H 2.17822303 8.46882772 15.33895763
H 2.13772616 12.31124560 13.79831065
H 2.15166823 12.31674578 15.34450821
H 4.28574245 8.73341480 10.09547552
H 5.62767943 8.74274948 10.86801820
H 5.66348080 8.77282440 13.76828722
H 5.22325900 10.04360565 14.52670854
H 1.74251504 12.12192870 17.62050099
H 0.40469605 12.14943579 16.84387309
H 0.39879700 12.10382037 12.27474322
H 1.74980778 12.10929175 11.52580880
H 3.55050780 12.44381100 10.07589173
H 2.65830324 13.70408925 10.11884922
H 2.13874083 8.47094393 9.29482955
H 2.13276424 8.45191838 10.84161997
H 6.52175555 7.20226507 12.30603860
H 7.41735285 8.46129209 12.30951290
H 6.01988772 8.48881599 17.57397491
H 6.01136571 8.49832088 16.02562794
H 6.47675081 13.67337124 16.78256258
H 6.04615837 12.41893118 15.99443741
H 0.40010447 8.75673753 16.78957094
H 1.28643043 10.02194573 16.79830866
