381

O 9.08746153 1.75989466 12.32038984
O 12.99087598 4.47202837 10.05040861
O 14.27839108 5.38810351 12.31038312
O 12.99950113 4.49448041 14.54056390
O 10.38132800 0.86677353 14.56511491
O 10.39736284 5.42865995 14.53634170
O 12.95945919 1.73602349 10.09310301
O 12.98376290 1.75960370 14.55096307
O 9.08061914 4.50413790 16.77277547
O 9.08661740 4.49905693 12.30946400
O 10.38982501 5.39761284 10.04662698
O 10.36846109 0.85904461 10.08082165
O 14.28453076 0.83281954 12.32377329
O 14.28850379 0.83159352 16.77097977
O 14.28669186 5.38164868 16.79390687
O 9.07093919 1.76604927 16.79785183
O 9.07415472 9.08786523 3.32940305
O 12.97302628 11.80891995 1.09651336
O 14.27831126 12.74271593 3.32556324
O 12.98635901 11.79264196 5.56105647
O 10.37575990 8.15848350 5.55546765
O 10.39117460 12.69482838 5.60130953
O 12.97967463 9.07470078 1.08623538
O 12.96653336 9.05619699 5.55442613
O 9.10091484 11.80319007 7.84200664
O 9.07181253 11.83213706 3.35571635
O 10.38373424 12.71362407 1.11800763
O 10.39205415 8.15655028 1.10652885
O 14.27138223 8.16294809 3.31998553
O 14.24411693 8.15163711 7.79756129
O 14.25322922 12.72813669 7.80920691
O 9.09176210 9.06555497 7.80121302
O 1.32635744 9.07497621 3.33727431
O 5.23175755 11.81169021 1.09048865
O 6.48654998 12.74184222 3.35102217
O 5.22065161 11.81285023 5.60079114
O 2.58960514 8.16568288 5.58038926
O 2.62221514 12.71124156 5.59754760
O 5.22484669 9.07513967 1.12744210
O 5.18119798 9.07396416 5.60807369
O 1.30522528 11.82617692 7.83130545
O 1.34347632 11.82346546 3.34572806
O 2.63654088 12.71505518 1.09860252
O 2.62262239 8.17603662 1.11163089
O 6.49206497 8.14624669 3.37772288
O 6.50334497 8.15195693 7.82613349
O 6.51867664 12.72748946 7.84994580
O 1.29526716 9.08967108 7.79226153
O 1.33043509 1.77087476 3.35509451
O 5.20923319 4.51702886 1.11015528
O 6.51837241 5.40110097 3.34530883
O 5.20626747 4.50515810 5.56773353
O 2.60626724 0.84566781 5.59045547
O 2.62809310 5.41908910 5.56921847
O 5.19916068 1.78005257 1.10182700
O 5.19709269 1.76021687 5.58363023
O 1.32522688 4.50935053 7.79055182
O 1.29531823 4.49783132 3.35812095
O 2.61074400 5.42254672 1.17243669
O 2.60355743 0.85311027 1.10344661
O 6.50485359 0.87635714 3.33337774
O 6.48591055 0.86899228 7.83892034
O 6.49047213 5.41602276 7.81743373
O 1.30700354 1.76992371 7.82572196
O 9.11773696 1.73711255 3.33434739
O 12.98490169 4.51182473 1.08194043
O 14.25512750 5.42429140 3.32851244
O 12.98042362 4.52123648 5.57338279
O 10.39463790 0.83229573 5.59483216
O 10.38673621 5.42039418 5.56181451
O 13.00278576 1.76392698 1.06027994
O 12.97662761 1.77480279 5.59121336
O 9.07978356 4.49808431 7.80073400
O 9.10082998 4.48378239 3.32619221
O 10.39187174 5.40985329 1.07734082
O 10.40513587 0.84835793 1.07177279
O 14.26780912 0.89265844 3.33292198
O 14.25316769 0.86061819 7.84383477
O 14.26689930 5.40838175 7.81996364
O 9.07930212 1.75264535 7.83261584
O 1.34508247 1.78180144 12.27001899
O 5.18149799 4.50464282 10.04172461
O 6.47055547 5.39099008 12.31373957
O 5.12442050 4.39558021 14.57412201
O 2.60477641 0.84762355 14.53888908
O 5.20233365 1.76755381 10.08575507
O 5.16545709 1.72690376 14.55890391
O 1.40012207 4.43285824 16.82052855
O 1.43846017 4.59033128 12.25463849
O 2.58543464 5.46022712 10.00964117
O 2.62573372 0.85181068 10.05514131
O 6.50434621 0.84028230 12.31000129
O 6.48237599 0.84879846 16.79310435
O 6.46540786 5.41051614 16.81196364
O 1.33016011 1.75465256 16.75986844
O 9.07812407 9.06297326 12.28218802
O 12.96220399 11.81014733 10.05074518
O 14.25193274 12.70341665 12.30167268
O 12.95610321 11.80524118 14.54311671
O 10.35446445 8.16222449 14.53491800
O 10.37568107 12.72236424 14.55749215
O 12.97674412 9.06789035 10.04478329
O 12.93740001 9.05660728 14.52857577
O 9.11334465 11.80335862 16.80814883
O 9.09144342 11.81277730 12.30553759
O 10.38138348 12.72514781 10.07178105
O 10.38930498 8.14960851 10.04270334
O 14.22840665 8.14743464 12.29383049
O 14.23128316 8.14473515 16.77172966
O 14.27725631 12.69474725 16.79355876
O 9.10198587 9.05980493 16.79942052
O 1.28017256 9.09008579 12.26557725
O 5.19548626 11.79614906 10.07743977
O 6.49503482 12.69674782 12.32539331
O 5.19514849 11.77634523 14.55736032
O 2.52216349 8.20896520 14.62115584
O 2.59442016 12.69102739 14.56299879
O 5.19421839 9.05296601 10.07410799
O 5.19562963 9.05409196 14.56190400
O 1.33454873 11.78012053 16.82754376
O 1.30925068 11.81207794 12.30496108
O 2.60811779 12.72170095 10.07853482
O 2.59717844 8.17573814 10.01900699
O 6.48070455 8.12605197 12.30895218
O 6.51128363 8.15504300 16.81490923
O 6.52342481 12.70128958 16.77805507
O 1.30993025 9.05103682 16.83769517
H 9.54721002 1.46573045 13.11388530
H 9.09330653 2.72312039 12.33984957
H 13.43575566 4.77412731 10.84778207
H 12.98973043 3.50892700 10.08409591
H 13.85330391 5.05132312 13.10822153
H 15.19228071 5.10204649 12.33611983
H 13.45135836 4.78112511 15.34056842
H 12.99076415 3.53072378 14.56016705
H 9.94139036 1.19954755 15.35492026
H 11.28755196 1.18994548 14.58776783
H 10.40919485 6.39216932 14.53506585
H 11.31260189 5.13421459 14.53524730
H 12.04986724 1.41808058 10.11521147
H 13.39609264 1.40125258 10.88290197
H 13.45292913 1.41741919 15.31957374
H 13.44869535 1.42597105 13.77612085
H 9.54979873 4.83220167 15.99922483
H 9.55362220 4.83339323 17.54356406
H 9.55437533 4.82480146 11.53434316
H 9.55337361 4.84191177 13.07861407
H 11.28884677 5.05642553 10.02317159
H 9.94817558 5.07297630 9.25487215
H 9.89980846 1.18608656 9.30516814
H 9.89819267 1.19245251 10.85312445
H 14.30752952 14.47127266 12.31762613
H 15.19577795 1.13874895 12.30057914
H 13.83662000 1.13891939 17.56450164
H 14.27490643 14.47029664 16.79950476
H 15.19002908 5.06536435 16.81951655
H 13.85140495 5.06397256 17.59432034
H 8.15714723 1.46080862 16.79222365
H 9.04146714 2.72888967 16.78870370
H 8.16197444 8.77948110 3.34034595
H 9.04361675 10.05047692 3.33347454
H 13.41088376 12.14714662 1.88451914
H 12.06614615 12.13296650 1.12106508
H 15.19436518 12.44658432 3.33043783
H 14.29745364 13.70523308 3.33259964
H 13.43891736 12.10162640 4.76966156
H 12.99555603 10.82978599 5.53363206
H 9.90559843 8.49449410 4.78491924
H 9.90921853 8.48880985 6.33093178
H 11.29508236 12.36300235 5.60565858
H 9.96433641 12.36159238 6.39821378
H 12.99516714 10.03759652 1.06345193
H 13.42064603 8.76829607 0.28688689
H 13.39637701 8.72453061 6.35053121
H 12.05862534 8.73490775 5.57423227
H 8.19743270 12.13703797 7.85964900
H 9.53298179 12.13962134 8.63497253
H 8.17032901 12.17073105 3.37661179
H 9.50946540 12.14320292 4.15517582
H 10.37805982 13.67669484 1.12162832
H 9.91816177 12.42779069 1.91143086
H 9.95127056 8.49620899 1.89230400
H 11.29662076 8.48616066 1.12659419
H 13.79881080 8.48968601 4.09325839
H 13.80372499 8.49499774 2.54580805
H 13.79926369 8.45902970 8.59511040
H 14.23844431 7.18930382 7.82990402
H 13.83025005 12.39117269 7.01227284
H 15.16051398 12.40378588 7.79826598
H 9.54863964 8.75437529 8.58992764
H 9.10425911 10.02799438 7.83845281
H 0.42073662 8.74869158 3.30804835
H 1.76524952 8.74983762 2.54279252
H 5.24432530 10.84828317 1.08867003
H 5.69001750 12.09752710 0.29319580
H 6.47353190 13.70444191 3.31928389
H 6.04447455 12.43197014 2.55313450
H 5.68309742 12.14916310 4.82584802
H 5.69014679 12.14331165 6.37369791
H 2.59612157 7.20312722 5.55715147
H 2.14505776 8.46089330 4.77760284
H 3.53008810 12.39084144 5.58179547
H 2.19540136 12.38452865 4.79774948
H 5.64732817 8.73756876 1.92406811
H 4.31802934 8.75229011 1.13621877
H 4.26299711 8.78457755 5.60344602
H 5.17161837 10.03705024 5.60319313
H 1.77207698 12.12409505 7.04320022
H 1.31093885 10.86317802 7.80300682
H 1.34001729 10.86059067 3.32525381
H 1.80176471 12.11375723 2.54953074
H 2.19954941 12.37322850 0.31002503
H 3.54361706 12.39196322 1.07316270
H 2.60809622 7.21464897 1.10407355
H 2.15942029 8.46720115 0.31626184
H 6.03079520 8.43959559 4.17015272
H 6.49547374 7.18340116 3.39245686
H 7.40724515 8.48287005 7.79481225
H 6.05450914 8.49143698 7.04464305
H 6.05036496 12.42040613 8.63342226
H 6.49470226 13.69005736 7.87081313
H 0.39299070 8.75382157 7.78060128
H 1.72683178 8.75133346 6.99949518
H 1.79804175 1.43319552 4.12709255
H 1.79181554 1.43771547 2.57826847
H 4.30979749 4.85768066 1.11614862
H 5.63287112 4.84979419 0.30929117
H 7.42195101 5.06831155 3.32039121
H 6.08269309 5.08585691 2.54593253
H 5.67593487 4.79216365 4.77652305
H 5.21476234 3.54208854 5.55984270
H 2.14506527 1.14872842 6.37957496
H 2.59632843 14.48467270 5.61648258
H 2.18334915 5.08364425 4.78388710
H 3.53402684 5.09143983 5.54061551
H 5.17460319 2.74328866 1.10168955
H 4.28560059 1.47781761 1.10825935
H 4.29414005 1.42703029 5.55994219
H 5.63825183 1.43407959 4.79224649
H 1.33577975 3.54621803 7.78004085
H 1.78854079 4.80363529 6.99827345
H 1.27728966 3.53434061 3.35814198
H 0.38050296 4.80077986 3.35686692
H 2.14342210 5.09629223 1.95116521
H 2.15346633 5.05858765 0.41287260
H 2.15564539 1.14245987 0.30351172
H 2.60679321 14.49143640 1.08259891
H 7.41514782 1.18923371 3.31267822
H 6.07246518 1.21559217 2.54221036
H 6.01159256 1.18857552 7.06431502
H 6.01983493 1.20282328 8.61298926
H 6.48216913 6.37951944 7.80131652
H 6.03740149 5.11943970 7.02106677
H 1.74926446 1.43935594 8.61459021
H 0.40076227 1.44428109 7.85580935
H 9.57911050 1.39985035 4.10932551
H 9.59229745 1.41535718 2.56113096
H 13.40639372 4.84673182 1.88130439
H 12.07684032 4.83496461 1.09374270
H 14.25257403 6.38789954 3.34279024
H 13.79782295 5.13217003 4.12485403
H 12.98539434 3.55833345 5.59165164
H 13.43564400 4.81295124 6.37073440
H 10.38724901 14.47141015 5.62217467
H 9.92810384 1.13477225 6.38102788
H 10.40168469 6.38357926 5.55466537
H 11.30414852 5.12850264 5.57015439
H 13.44487581 1.47212528 1.86497249
H 13.00463189 2.72653262 1.08286817
H 12.07443509 1.43799865 5.60854010
H 13.40752640 1.44348552 6.38643026
H 9.51322266 4.83270369 7.00875463
H 8.17724227 4.83392431 7.78704116
H 9.55935340 4.79147436 4.11539813
H 9.12124328 3.52145443 3.35134132
H 9.93637698 5.09995846 1.86713971
H 10.37490095 6.37230497 1.10856830
H 11.30826897 1.17881782 1.03669526
H 9.95278280 1.18035573 0.28878851
H 15.17532682 1.21356950 3.36150574
H 13.83344580 1.21200132 4.13093229
H 14.24089425 14.49918380 7.84668921
H 13.79183153 1.14607964 8.63973085
H 13.84070709 5.06317178 8.61196945
H 15.17429449 5.08638756 7.82777240
H 9.05979667 2.71535799 7.81462646
H 8.16144940 1.45995900 7.83052920
H 1.38134596 2.73873196 12.24628461
H 1.80521882 1.46877558 11.48135808
H 4.28480521 4.84965017 10.01298357
H 5.62714856 4.83325726 9.25307855
H 6.04380415 5.07194338 11.51372423
H 7.37077915 5.05379420 12.30168525
H 5.56179758 4.76873431 13.80818219
H 5.56717820 4.77067943 15.33653534
H 3.51870384 1.16199647 14.52612558
H 2.18786995 1.18333877 13.74001122
H 5.66671652 1.46722676 10.87508531
H 5.20558253 2.73045243 10.10368096
H 5.17186229 2.69745561 14.54611834
H 5.64110073 1.43577492 13.77556480
H 1.96644088 4.73601595 16.12683909
H 1.39637642 3.46365448 16.77208017
H 1.83786052 4.90942660 11.42851708
H 1.97720689 4.94818025 12.94414176
H 2.13766504 5.14697917 9.21486445
H 2.57745093 6.42528825 9.97971795
H 3.54276774 1.14789657 10.06237563
H 2.64345459 14.49008466 10.06399926
H 7.42084811 1.13505890 12.31795638
H 6.52065329 14.47959384 12.31243828
H 6.00749660 1.17310894 16.01909538
H 6.01264667 1.17937898 17.56515798
H 7.37764338 5.10751950 16.79243491
H 6.49806809 6.37275949 16.80201246
H 0.42472352 1.42290832 16.74683714
H 1.76527950 1.41205275 15.96892383
H 9.08968728 10.02537305 12.26456671
H 9.54406815 8.76446015 11.49451081
H 12.05868007 12.14389284 10.03472460
H 13.39673008 12.14045661 9.25736748
H 13.77779944 12.37500998 13.07332820
H 13.78303223 12.38227152 11.52403475
H 12.05570811 12.14703988 14.57285007
H 13.40234927 12.12540930 15.33362065
H 9.88086307 8.48736992 13.76153208
H 9.88780620 8.48621895 15.31302799
H 9.92895508 12.42054519 15.35612685
H 10.36382538 13.68499018 14.57945606
H 13.42304226 8.77187304 10.84545259
H 12.98215253 10.03087141 10.06145065
H 12.01679575 8.77200892 14.52929146
H 12.92749267 10.01962851 14.53508178
H 9.53755185 12.13281743 17.60751708
H 8.20601592 12.12700754 16.81940951
H 9.52095320 12.13735024 13.10392951
H 8.18178516 12.12909415 12.33104740
H 10.36420821 13.68824744 10.09264017
H 9.92519159 12.42353055 10.86530101
H 10.41049925 7.18707804 10.04266319
H 11.30491761 8.44769301 10.04032450
H 13.77311424 8.44883550 13.08794392
H 14.22505664 7.18654707 12.31929483
H 13.77286413 8.43961491 15.97783756
H 14.23557840 7.18414459 16.75291731
H 15.18037889 12.35989745 16.82059414
H 13.83769317 12.37253336 17.58729395
H 9.56351013 8.75585565 17.58809712
H 9.12156981 10.02238426 16.82252484
H 1.71951425 8.75631501 11.47834812
H 0.38298924 8.74418557 12.25454073
H 4.27907281 12.09116655 10.07681888
H 5.17733671 10.83310055 10.07494908
H 6.02173309 12.36278330 13.09552402
H 6.02673861 12.36868731 11.55063034
H 5.17733362 10.81139489 14.56217642
H 4.27924480 12.07086612 14.56316767
H 3.44428194 8.46497834 14.58011341
H 2.12017507 8.51377072 13.80785944
H 2.59349371 13.65265874 14.53933427
H 2.14057678 12.39696152 13.76590939
H 5.65168862 8.71515342 10.85244316
H 5.67464767 8.72566051 9.30692278
H 5.66190492 8.71904896 15.33329539
H 5.65329125 8.70833456 13.78976159
H 1.33987365 10.81555780 16.81163825
H 1.77704025 12.07419375 16.02431568
H 1.28858761 10.84746835 12.29632977
H 0.39180946 12.10345904 12.30482630
H 2.13521575 12.39550697 10.85259834
H 2.13439543 12.39674740 9.30574035
H 3.50509935 8.49814319 10.01783723
H 2.16929250 8.52565363 9.23024310
H 7.39410416 8.42742399 12.29903888
H 6.50232136 7.16241091 12.31629164
H 6.07999223 8.48488184 17.60910002
H 7.41410774 8.48835196 16.83128453
H 6.49572535 13.66360144 16.76012896
H 6.05691473 12.39481827 15.99277271
H 1.74069574 8.73761486 16.02579881
H 0.40323019 8.73441097 16.80524741
