381

O 9.07956085 1.78390830 12.30067514
O 12.99216579 4.50115769 10.04519390
O 14.29473971 5.42476912 12.25824223
O 12.95542589 4.47226839 14.47909947
O 10.36565167 0.85228506 14.54900752
O 10.40316321 5.44482420 14.55999178
O 12.95832702 1.76690883 10.08812302
O 12.97579395 1.71354391 14.53524622
O 9.11177374 4.52565390 16.78896758
O 9.10057530 4.52315289 12.33504153
O 10.40061648 5.40236341 10.07800933
O 10.37188980 0.85842902 10.05948733
O 14.26680777 0.80482112 12.29392548
O 14.26617947 0.84593458 16.78555257
O 14.26317045 5.46241784 16.74039634
O 9.09030584 1.79107233 16.77925932
O 9.07623488 9.06869313 3.30893368
O 12.96708896 11.77502787 1.08729772
O 14.26263740 12.69700740 3.32295382
O 12.96527873 11.81258270 5.57235386
O 10.36257042 8.17003949 5.55731295
O 10.37295904 12.70214472 5.56255731
O 12.99571281 9.03271036 1.06026171
O 12.95191565 9.07460616 5.56948653
O 9.09513182 11.81695466 7.82239732
O 9.06806924 11.81153848 3.31649735
O 10.39139671 12.72301373 1.10812714
O 10.39756974 8.15602344 1.07935894
O 14.26509874 8.15942412 3.33441493
O 14.26352958 8.14779308 7.78569288
O 14.25051742 12.73610385 7.81493646
O 9.08625592 9.07410758 7.81075618
O 1.32288805 9.04203378 3.35004008
O 5.19537949 11.79307755 1.07995157
O 6.47146842 12.69005300 3.32830640
O 5.18973168 11.79966156 5.58266148
O 2.62400052 8.15927160 5.59014402
O 2.60254399 12.72022937 5.59597779
O 5.21611570 9.06382696 1.10017569
O 5.21180660 9.05701275 5.57147451
O 1.30582582 11.81798741 7.83438287
O 1.31571558 11.77455066 3.35326362
O 2.60953163 12.70695281 1.12925241
O 2.60691847 8.17315667 1.09763738
O 6.50198160 8.12998768 3.34121360
O 6.51152599 8.14278612 7.81023439
O 6.49422262 12.69178915 7.83037531
O 1.32219648 9.07650850 7.82906769
O 1.31014539 1.75050898 3.33470173
O 5.22134382 4.48728815 1.10769021
O 6.49725868 5.38938935 3.34612923
O 5.18186062 4.48806066 5.59316269
O 2.61163959 0.86597596 5.58863814
O 2.59707707 5.41825997 5.57635757
O 5.19726488 1.76939547 1.10083781
O 5.20887187 1.74400096 5.59147263
O 1.32908353 4.50847499 7.81953016
O 1.29123805 4.46270834 3.34188035
O 2.70638141 5.36199425 1.10328055
O 2.58840882 0.83638072 1.12388797
O 6.48923097 0.82987818 3.33877243
O 6.51179816 0.82614507 7.82185660
O 6.50846820 5.39295550 7.82977529
O 1.31491561 1.77291598 7.83415124
O 9.07340921 1.74152478 3.33742041
O 12.95983137 4.49586912 1.10360171
O 14.26068278 5.41588531 3.34287422
O 12.96484372 4.49142737 5.58033810
O 10.36375229 0.83914143 5.57124245
O 10.38893072 5.42383702 5.57665867
O 12.97101815 1.73465991 1.11127926
O 12.95014292 1.74241662 5.59571380
O 9.10646144 4.51262635 7.82331296
O 9.08818227 4.49567545 3.35243839
O 10.39599640 5.41362489 1.09988352
O 10.37789871 0.86139327 1.08284275
O 14.25418958 0.83482313 3.36110527
O 14.25363794 0.87113981 7.84975770
O 14.27175790 5.40444015 7.79973928
O 9.09017285 1.76442598 7.81261767
O 1.31103250 1.77958766 12.32904024
O 5.21264120 4.47927492 10.07058465
O 6.48694116 5.41593985 12.32567709
O 5.16758244 4.47773542 14.55425467
O 2.58708937 0.87246758 14.59476365
O 2.52854272 5.43654347 14.53710939
O 5.20625343 1.73605875 10.05056617
O 5.19002925 1.75486199 14.55119785
O 1.31538282 4.53473022 12.32533784
O 2.62376703 5.38274311 10.07571841
O 2.59965471 0.85498774 10.06753066
O 6.49468063 0.87593213 12.31402140
O 6.50261976 0.88406781 16.81437790
O 6.51565013 5.40778164 16.77836991
O 1.34296945 1.83618201 16.93065281
O 9.09713314 9.07003842 12.29303112
O 12.97399096 11.79888520 10.06821676
O 14.28778287 12.67373250 12.31224091
O 12.96237039 11.80488420 14.54614494
O 10.38498749 8.18473433 14.55055429
O 10.37398993 12.71411523 14.55486267
O 12.96351110 9.06065417 10.02620495
O 12.97723647 9.05924784 14.50828205
O 9.09686569 11.81396887 16.80762651
O 9.08739437 11.81344899 12.30501653
O 10.39102283 12.72213916 10.06506854
O 10.38077994 8.14429201 10.04598028
O 14.26206906 8.16479877 12.26997544
O 14.30961285 8.14222801 16.76469691
O 14.25765642 12.70002745 16.79390820
O 9.08009362 9.07374086 16.80334365
O 1.31616462 9.05643529 12.26359233
O 5.20422136 11.80212404 10.08744689
O 6.49665024 12.73638050 12.32681929
O 5.19801767 11.85773197 14.57725073
O 2.61661404 8.22574605 14.49575303
O 2.58495026 12.75331975 14.58744293
O 5.22592996 9.05624736 10.06228694
O 5.21485134 9.10521072 14.55658362
O 1.31626597 11.82224833 16.82325571
O 1.35197659 11.79237117 12.32978135
O 2.61143175 12.71352263 10.07200613
O 2.63608149 8.13278776 10.05760776
O 6.50681578 8.16822050 12.32393944
O 6.49562635 8.14332538 16.80101373
O 6.51603032 12.74406687 16.80396058
O 1.32110306 9.10252587 16.77460771
H 9.53738217 1.48190849 11.50913000
H 9.10755126 2.74662324 12.29177090
H 12.99899646 3.53808296 10.04008034
H 13.43955598 4.79143796 9.24273179
H 13.83222908 5.12561278 11.46726239
H 14.26250517 6.38774220 12.25326300
H 13.42553439 4.77164404 13.69613666
H 12.97341411 3.51093326 14.46932495
H 9.90281659 1.19829664 15.32031266
H 9.90063881 1.18598568 13.77501605
H 10.43325361 6.40726797 14.55850449
H 11.31388125 5.13084729 14.53040343
H 13.38983589 1.41653618 10.87429810
H 12.05193067 1.44045031 10.09502069
H 13.40300711 1.36729438 13.74490690
H 12.06571202 1.39866949 14.52250231
H 9.57520807 4.84578657 17.57083683
H 9.59025060 4.86362507 16.02397328
H 8.19526092 4.84816461 12.35312156
H 9.53549303 4.85980756 13.12651051
H 9.96747213 5.07950074 10.87486497
H 11.30610695 5.07516689 10.09584280
H 9.92274658 1.15513069 9.26063551
H 10.36433729 14.49749578 10.04262340
H 15.17395276 1.12512461 12.30274915
H 14.30871258 14.44412495 12.29139754
H 15.15508628 1.20353397 16.78829053
H 13.83207167 1.16860419 15.98713713
H 13.79650747 5.10089827 15.98640845
H 13.83039687 5.11306585 17.51986899
H 8.17279819 1.49967260 16.79813386
H 9.07655808 2.75464703 16.78709247
H 9.54896240 8.77140079 2.52422424
H 9.07862418 10.03163323 3.28640224
H 13.42232061 12.07930249 0.29533373
H 12.97753075 10.81184857 1.05859691
H 13.82629014 12.36196479 2.53212065
H 15.16446453 12.35986567 3.30748811
H 13.43388998 12.15222611 6.34193420
H 13.43499134 12.12988586 4.79373038
H 9.89161133 8.49609997 6.33141635
H 9.89417450 8.50019701 4.78308690
H 9.94162683 12.37546858 6.35898587
H 11.27999777 12.37898507 5.58320677
H 13.46308997 8.71311061 1.83923891
H 13.47099133 8.70077311 0.29036601
H 12.03680778 8.77396283 5.56448389
H 12.92731298 10.03730870 5.57171588
H 8.18564458 12.13279759 7.84319710
H 9.52764196 12.15227746 8.61465487
H 9.54532562 12.15254133 2.55202826
H 9.53548036 12.12916366 4.09616415
H 10.41588485 13.68592888 1.09521535
H 11.30442823 12.41650988 1.10223816
H 11.31583556 8.44745653 1.07008322
H 10.41774872 7.19276115 1.09021453
H 13.81973670 8.50139587 4.11622158
H 15.17323733 8.47908618 3.36631323
H 15.16643107 8.48108211 7.77458139
H 13.82754695 8.48727510 6.99628525
H 14.23913678 13.69869854 7.85050451
H 13.80112693 12.42529553 8.60764856
H 9.10493924 10.03655404 7.83867662
H 9.54447717 8.76353599 8.59885997
H 1.79717050 8.70513702 4.11738117
H 1.78586899 8.71912750 2.56823329
H 5.21596347 10.82941980 1.05778413
H 5.65910399 12.10263039 0.29526129
H 7.38075357 12.37307347 3.30285649
H 6.03985465 12.35874713 2.53317749
H 5.20386192 10.83679749 5.55878363
H 5.64536378 12.09795294 4.78786389
H 2.18769587 8.49463911 6.38000395
H 3.52824093 8.49053217 5.60737377
H 3.51716975 12.41825469 5.59117784
H 2.62853011 13.68286593 5.58847038
H 5.67561652 8.72688303 1.87643564
H 5.67969817 8.71668236 0.33107250
H 5.67347221 8.71739423 4.79679459
H 5.68492376 8.72633023 6.34227675
H 1.74326877 12.14329576 7.03995126
H 0.40070562 12.14605687 7.80879607
H 1.32940218 10.81076485 3.37685569
H 1.76483540 12.08068898 4.14778133
H 3.51391581 12.37516051 1.13591696
H 2.17889114 12.36343879 1.92023855
H 2.17769530 8.50204426 0.30310539
H 3.51241446 8.49659637 1.07838023
H 6.52224284 7.16680995 3.34372779
H 7.41645725 8.43169756 3.32944799
H 7.41255891 8.48334007 7.82841052
H 6.07767172 8.47566410 8.60258001
H 6.02301197 12.36821051 8.60510236
H 6.02383326 12.36340335 7.05655153
H 1.32664264 10.03904535 7.85927291
H 1.78060380 8.76830566 8.61692145
H 1.28094453 2.71595804 3.33589868
H 0.39648839 1.44703610 3.35235819
H 4.31153147 4.82628239 1.09401131
H 5.65346017 4.81600415 0.31502158
H 6.02056722 5.06468468 4.11651865
H 6.02732250 5.06631830 2.56829177
H 5.19880890 3.52558602 5.61325134
H 5.65098819 4.78766302 6.37846997
H 2.17840316 1.19153475 4.79264642
H 3.51880950 1.18916657 5.56744331
H 2.62970762 6.38055940 5.57455668
H 3.50946223 5.11091977 5.57921036
H 4.28211517 1.47653794 1.11194325
H 5.18455536 2.73507255 1.10678581
H 5.67605817 1.41521254 4.81629527
H 5.67949657 1.40794656 6.36167519
H 0.42226753 4.83234560 7.79424581
H 1.76263483 4.84343202 7.02600810
H 1.72788282 4.80718382 4.12661299
H 0.39427586 4.81322670 3.34892458
H 2.19579069 5.06554870 1.85773812
H 2.63486999 6.31667985 1.09127088
H 2.59299445 14.47430380 1.14821873
H 2.13621661 1.13511775 1.92317424
H 6.46648295 14.46931428 3.31155121
H 6.02970584 1.14156680 2.55225872
H 7.42435461 1.13444136 7.82162845
H 6.53783170 14.46542482 7.82644001
H 7.42745512 5.10456351 7.82627998
H 6.52482557 6.35584455 7.82320618
H 1.33342919 2.73601430 7.80419280
H 1.76792164 1.46626784 7.04120073
H 9.50659583 1.42629267 2.53746371
H 8.17030457 1.40722440 3.31603286
H 12.98691534 3.53550996 1.12395409
H 13.42822389 4.80218955 1.88657702
H 14.25055725 6.37861655 3.35813119
H 13.80007733 5.11772017 4.13349016
H 12.05022713 4.79342513 5.57912493
H 12.94067582 3.52886102 5.58267119
H 9.90880935 1.13655653 4.77544975
H 10.35305143 14.47821377 5.55173639
H 9.92384028 5.11439123 4.79140593
H 10.37393010 6.38617896 5.54547771
H 13.43490148 1.39948302 1.88597447
H 13.43871894 1.40804193 0.33768511
H 13.38116427 1.42835875 6.39728651
H 12.04633978 1.40968604 5.61163942
H 9.57135150 4.85095882 7.05042271
H 9.57939728 4.83262443 8.59841991
H 9.06445091 3.53344885 3.34968431
H 8.17100168 4.79058443 3.34771436
H 11.30026508 5.07729859 1.12145037
H 9.95879763 5.08279662 1.89044982
H 9.95216081 1.20024593 0.28880393
H 11.28300088 1.19129407 1.07765267
H 14.24519594 14.47402363 3.37377593
H 13.79126912 1.12914579 4.15300459
H 13.82260024 1.19974059 8.64585001
H 15.15785194 1.20197495 7.86132203
H 14.25821302 6.36713612 7.77555602
H 13.81181615 5.10031548 7.00926115
H 9.54276935 1.46622570 7.01616060
H 9.10461696 2.72728772 7.79699435
H 1.76224052 1.48658314 13.12626737
H 1.32007632 2.74153991 12.34252054
H 5.22539692 3.51666933 10.04255298
H 5.67211966 4.78487095 9.28065595
H 6.03369920 5.08018906 11.54513469
H 6.00973169 5.07460114 13.08775333
H 4.25700745 4.77339917 14.57644596
H 5.14851322 3.51343555 14.55323386
H 2.55675701 14.50995268 14.61887605
H 2.15928312 1.18834105 15.39129806
H 2.06478291 5.10718298 13.75081375
H 1.97160209 5.25117106 15.27795897
H 4.29842848 1.41628495 10.03305437
H 5.63993388 1.39627374 9.26022745
H 4.29092639 1.41373928 14.53417819
H 5.63056076 1.43368393 13.75612595
H 0.40865170 4.86450044 12.27197514
H 1.76873792 4.84052357 11.53071216
H 2.18638342 5.06505840 9.27789307
H 3.52592502 5.04539421 10.05110267
H 2.13101540 1.19218849 9.29571022
H 2.13749189 1.18807693 10.84225424
H 7.39812548 1.21043943 12.29296994
H 6.06358584 1.18909278 11.51157723
H 6.02553909 1.20878748 17.58635468
H 6.02685273 1.19681352 16.03908254
H 7.42465776 5.08948416 16.75898078
H 6.07848883 5.06174586 15.99581835
H 1.79124991 1.46329054 17.70797992
H 1.30860227 2.76872596 17.08209502
H 9.07359418 10.03280674 12.28746035
H 8.18175667 8.77115004 12.29926687
H 13.44435091 12.07880556 10.86044990
H 12.98367231 10.83570961 10.06546182
H 15.19167431 12.34316083 12.34123724
H 13.84555694 12.36142679 13.10925466
H 12.05855645 12.13780055 14.56399397
H 13.39306186 12.12744240 15.34448771
H 9.91287969 8.50672217 13.77552343
H 9.91001891 8.50678643 15.32374882
H 9.92297836 12.41164571 15.35064527
H 10.35357339 13.67695044 14.57297934
H 13.40010794 8.73135729 9.23351335
H 12.06009853 8.72707998 10.00841614
H 12.05950817 8.76742890 14.53062433
H 12.95580782 10.02140873 14.52713601
H 9.09678555 10.85056377 16.82758084
H 9.55499571 12.10786821 17.60204945
H 9.51929708 12.13632376 13.10323206
H 8.18487468 12.14847194 12.32661766
H 11.29440069 12.38787671 10.08288088
H 9.95621709 12.39108252 10.85783578
H 9.93151034 8.44825777 10.84173428
H 10.37488492 7.18159989 10.07566926
H 13.79266942 8.49164534 13.04640743
H 13.78754073 8.49265198 11.49871141
H 14.29228328 7.17273077 16.74367181
H 13.83824129 8.44171183 15.98276846
H 15.17505893 12.40595607 16.80254070
H 14.27843252 13.66188437 16.79072314
H 8.17843524 8.73708999 16.82770195
H 9.52664745 8.73292775 17.58625427
H 1.75775592 8.71492331 11.47810069
H 0.40724637 8.73662931 12.24151009
H 4.30005656 12.13272566 10.10505657
H 5.63964534 12.14236561 10.87611707
H 6.49215671 13.69937652 12.33970202
H 6.03925076 12.44724021 13.12347769
H 5.64073284 12.18268546 15.36913090
H 4.29288361 12.18228957 14.60774623
H 2.15376075 8.51571314 13.70002135
H 2.60771352 7.26786526 14.47544215
H 2.12163290 12.40606562 15.35811309
H 2.13756671 12.40365567 13.80921816
H 5.22642747 10.01894603 10.08684436
H 5.67726898 8.76119518 10.86012394
H 4.29507840 8.82198562 14.53932273
H 5.20252416 10.06790633 14.56556015
H 1.77268593 12.11015632 17.62111342
H 1.32412208 10.85750197 16.83199503
H 1.36039881 10.83025276 12.28606079
H 1.79460657 12.10644264 11.53374764
H 2.59421488 13.67616342 10.05185423
H 2.14836837 12.41600525 9.28116902
H 3.55075530 8.43447250 10.05981117
H 2.66070965 7.17027344 10.05350487
H 6.04970218 8.47627473 13.11361367
H 6.48886016 7.20606154 12.34762407
H 6.48745251 7.18066508 16.76384707
H 6.04172673 8.45796939 16.01312839
H 7.42984544 12.43964567 16.80439771
H 6.54180487 13.70657436 16.81344092
H 1.75508203 8.78878018 15.97676791
H 0.42285963 8.74934739 16.75687315
