381

O 9.04036512 1.77320660 12.27081402
O 12.96459846 4.47588786 10.05951645
O 14.28355273 5.41312977 12.28404202
O 12.97473750 4.53589940 14.54041812
O 10.38642386 0.83500646 14.55805966
O 10.35478921 5.39238610 14.53406448
O 12.98543827 1.74140147 10.05173393
O 12.98118822 1.78653941 14.54613020
O 9.06117566 4.49042565 16.78107744
O 9.05445037 4.46453475 12.30622092
O 10.37488692 5.39026967 10.06066978
O 10.40089174 0.80463417 10.02531735
O 14.26002375 0.85803391 12.31755465
O 14.26643753 0.87693963 16.79776063
O 14.27125721 5.44737964 16.79173628
O 9.10158595 1.76112816 16.78267107
O 9.08732241 9.04826119 3.33095110
O 12.96553185 11.80792705 1.07816909
O 14.27365887 12.70462155 3.31390889
O 12.98845105 11.82266880 5.57794039
O 10.39786787 8.15083355 5.55639809
O 10.39596662 12.70519609 5.59179888
O 12.94948881 9.06616936 1.10498819
O 12.98412631 9.08368135 5.57319150
O 9.09226245 11.78028327 7.82409701
O 9.11523332 11.78290727 3.34017482
O 10.37831962 12.71415261 1.09192476
O 10.36763133 8.13521681 1.09702473
O 14.26206961 8.16751528 3.33555383
O 14.25200573 8.15034617 7.82226640
O 14.28742353 12.70354538 7.83141475
O 9.08966783 9.03819264 7.79383389
O 1.32830823 9.03896895 3.35224276
O 5.20934991 11.80449635 1.10044621
O 6.52077224 12.69475847 3.33261156
O 5.21674123 11.82099397 5.58048976
O 2.61479045 8.12861868 5.59249147
O 2.61038220 12.69808525 5.59266830
O 5.21167131 9.06110026 1.10211240
O 5.18964524 9.07927761 5.57457048
O 1.34898982 11.78246031 7.85188768
O 1.31294991 11.77686907 3.34787667
O 2.60824915 12.70256314 1.09882170
O 2.62178738 8.16180451 1.09824169
O 6.48949358 8.14750233 3.34828691
O 6.47861033 8.17084794 7.80564018
O 6.50763898 12.73072737 7.83771970
O 1.31256769 9.05103275 7.81875582
O 1.32876316 1.76367270 3.35151788
O 5.19308484 4.51530910 1.08844093
O 6.49590076 5.39699521 3.32413451
O 5.21345857 4.49598303 5.55424343
O 2.61491093 0.84667958 5.60242094
O 2.62986747 5.38917973 5.58833060
O 5.20792019 1.76641278 1.11431804
O 5.20494447 1.74989308 5.58617830
O 1.33377551 4.50447165 7.84216712
O 1.32953476 4.50806351 3.33614259
O 2.60556440 5.42103298 1.08713499
O 2.61309970 0.85170067 1.09822803
O 6.48253291 0.83565237 3.35240416
O 6.49452715 0.88231017 7.82790761
O 6.47748525 5.44001355 7.78539635
O 1.31749856 1.76656587 7.84756648
O 9.07959182 1.73137530 3.35700778
O 12.95119512 4.52908407 1.07454235
O 14.27264718 5.43136221 3.31189021
O 12.98585127 4.51669682 5.56070541
O 10.38904771 0.84233307 5.59746116
O 10.38705462 5.40641071 5.57043090
O 12.95685292 1.77799746 1.08471448
O 12.97013574 1.76665785 5.55171704
O 9.06710351 4.52249955 7.80660459
O 9.07861078 4.47236273 3.33461514
O 10.34710832 5.39689125 1.08020217
O 10.38141700 0.85494796 1.10157357
O 14.27076979 0.85237475 3.31226938
O 14.27135315 0.84205008 7.79427655
O 14.26489744 5.40212671 7.82908078
O 9.09430265 1.78490521 7.81325878
O 1.32257773 1.74111763 12.31887461
O 5.19097663 4.54784130 10.00516360
O 6.50715324 5.42843284 12.27867821
O 5.21082865 4.50575072 14.53430341
O 2.60018339 0.82911590 14.53362225
O 2.60537775 5.41435962 14.53192326
O 5.24432764 1.89654433 10.11393820
O 5.10929597 1.70207850 14.55776212
O 1.32268253 4.51223790 16.78109522
O 1.33632249 4.48840001 12.29297513
O 2.62163244 5.44848850 10.07461214
O 2.63810080 0.84907608 10.05566121
O 6.51842045 0.82728741 16.81458272
O 6.48338214 5.40603932 16.78473894
O 1.32094287 1.77169711 16.79248967
O 9.06750698 9.04065198 12.28025350
O 12.98604046 11.80745748 10.07863063
O 14.23437078 12.72470141 12.32628296
O 12.95719807 11.80251963 14.56874448
O 10.36695500 8.13798667 14.52867104
O 10.37239997 12.67580121 14.56327301
O 12.97375161 9.06621639 10.07129061
O 12.94648179 9.06227716 14.55497556
O 9.06640142 11.79958606 16.80632663
O 9.08845283 11.76829742 12.29497380
O 10.38103628 12.68458765 10.07433164
O 10.38126961 8.14857022 10.04863769
O 14.25936203 8.15212014 12.32089624
O 14.26535470 8.19879446 16.80584820
O 14.25950879 12.73411361 16.78369308
O 9.11000769 9.05856977 16.78738334
O 1.31748247 9.05538503 12.32251635
O 5.23327972 11.87786369 10.12486182
O 6.62077428 12.80273558 12.40082700
O 5.16981646 11.80088269 14.57387948
O 2.62001897 8.16122995 14.56687110
O 2.60682994 12.72062555 14.51879107
O 5.22182262 9.10777039 10.06987785
O 5.21234000 9.05324850 14.59591246
O 1.31799168 11.83050093 16.78025396
O 1.27834970 11.79781244 12.29625119
O 2.64161599 12.70590936 10.11243972
O 2.62361512 8.18513697 10.06707703
O 6.47162011 8.15261818 12.31724941
O 6.52172986 8.14497832 16.82385752
O 6.48015969 12.72148079 16.81348523
O 1.32623874 9.08793634 16.80666830
H 9.51886258 1.42158411 11.51927073
H 9.48318465 1.43661318 13.05015101
H 12.04911916 4.77495573 10.06129905
H 12.94318212 3.51281287 10.06392722
H 13.83932599 5.07450823 11.49981457
H 15.18413887 5.07289517 12.26462438
H 13.45113890 4.85468229 13.76722201
H 13.43689850 4.87709799 15.31285738
H 11.29723083 1.14296960 14.54401974
H 10.41400880 14.47659213 14.55353980
H 11.26448510 5.07873999 14.51150178
H 9.91897210 5.04525106 13.74734385
H 13.45730701 1.41048906 9.28101247
H 13.45016239 1.41827236 10.83075622
H 13.43734437 1.49358558 15.34189329
H 12.98197975 2.74923926 14.56464915
H 9.08587418 3.52692291 16.75896242
H 9.52278934 4.79381711 15.99193380
H 9.52189499 4.76133684 11.52017726
H 9.05203179 3.49559678 12.28144139
H 10.37218838 6.35237336 10.04900482
H 9.91469811 5.10741927 9.26382284
H 9.96481782 1.16415254 9.24720046
H 11.30275596 1.13958377 10.01858049
H 13.82189329 1.20616326 13.10257058
H 15.16715176 1.18029094 12.34154046
H 13.79744518 1.17185206 17.58583615
H 14.24705876 14.51627148 16.80812840
H 14.26493423 6.40959510 16.81921029
H 13.80001843 5.14552103 17.57549251
H 9.57289339 1.43457738 17.55523470
H 9.56564491 1.42310010 16.00812433
H 8.18092686 8.72333067 3.32078194
H 9.51092260 8.71506126 2.53194615
H 13.42952038 12.10622283 1.86787450
H 12.96964291 10.84517072 1.10421026
H 13.83716882 12.38985403 4.11219573
H 15.17443668 12.36382436 3.34054608
H 13.42294141 12.14881908 6.37263552
H 12.08156411 12.14678350 5.60246313
H 11.29736149 8.49430732 5.54521781
H 9.96318115 8.47549575 4.76033821
H 10.38144579 13.66818086 5.61388791
H 9.93674855 12.40185062 6.38179862
H 13.39294282 8.73879663 1.89477853
H 12.04934520 8.72468367 1.12639309
H 12.99813662 10.04655946 5.59753274
H 13.42611086 8.77721697 6.37208433
H 9.06887914 10.81741094 7.80838971
H 8.17867237 12.08203522 7.82677719
H 9.56567541 12.08364145 4.13603398
H 9.12038775 10.81991604 3.36090981
H 11.28595927 12.39142440 1.10143291
H 9.95717748 12.37235995 1.88777025
H 10.34836222 7.17234575 1.07094235
H 9.92728365 8.44325368 0.29760579
H 13.83438273 8.50163483 4.13153449
H 15.17092151 8.48567820 3.35377240
H 14.23908393 7.18766120 7.84468183
H 13.80439812 8.45182316 8.62015372
H 15.19032909 12.37109870 7.85542131
H 13.85058092 12.38067688 8.62682040
H 9.52417442 8.71156370 6.99850977
H 8.18481814 8.71067553 7.77589668
H 1.79422930 8.69608046 4.12211181
H 1.79844467 8.71719508 2.57547132
H 5.63772992 12.14760296 0.30787627
H 4.30209940 12.12682884 1.08555954
H 7.42529382 12.36528384 3.31068584
H 6.08057931 12.36225570 2.54259422
H 5.68938579 12.14480797 4.80584993
H 5.68627979 12.15017814 6.35303569
H 3.52444628 8.44462325 5.58732062
H 2.65168417 7.16602631 5.59568436
H 3.52057817 12.38486772 5.60703362
H 2.18797354 12.36124483 6.38970352
H 5.67952107 8.75923916 0.31581294
H 5.22385552 10.02391070 1.08147866
H 5.20830105 10.04200894 5.55018057
H 5.65174270 8.77189020 4.78684730
H 1.80644284 12.07333174 8.64647468
H 1.34863556 10.81902472 7.86169102
H 1.33357730 10.81391677 3.37057980
H 1.77306936 12.08163018 4.13663077
H 2.13789098 12.38717250 0.31993936
H 2.14025420 12.36018298 1.86685477
H 2.18322389 8.50552958 0.31260502
H 3.52806134 8.48714011 1.07516544
H 6.03574346 8.44875285 2.55336265
H 6.47692792 7.18493656 3.32585278
H 6.02734908 8.50910690 8.58554526
H 6.00742780 8.51226038 7.03745641
H 6.49801495 13.69277139 7.85249039
H 6.04940927 12.44301685 8.63307416
H 0.40641808 8.72445602 7.80427014
H 1.74444076 8.71541231 7.02581293
H 1.78079279 1.46940914 4.14851655
H 1.34051272 2.72652469 3.36286939
H 5.62193412 4.83538087 0.28708140
H 4.28946969 4.84859427 1.07148698
H 6.06028537 5.07673891 2.52615456
H 7.39969803 5.06467386 3.30446940
H 5.66912790 4.78908110 4.75648136
H 5.22935522 3.53322099 5.54567207
H 2.59607193 14.48622039 5.61924123
H 2.15711614 1.14781706 6.39384677
H 2.18719560 5.07489911 4.79254454
H 3.53276752 5.05504798 5.55303514
H 5.17842261 2.72858769 1.10205268
H 4.29423331 1.46309432 1.09964999
H 5.63740757 1.41090489 4.79375909
H 4.29878924 1.42365949 5.56764003
H 1.80087963 4.82573517 7.06366256
H 1.79851342 4.85174405 8.61048061
H 1.76234591 4.83620216 2.54038019
H 0.42567850 4.83942735 3.31137003
H 2.15203742 5.12039387 0.29208902
H 2.59783955 6.38392137 1.06612149
H 2.60121279 14.49144275 1.11641794
H 2.15973105 1.14922080 1.89355034
H 6.48521442 14.47557256 3.31272165
H 6.03456768 1.14724888 2.55769597
H 6.01818935 1.19768193 7.05040937
H 6.04777181 1.24068612 8.59652383
H 6.02857650 5.13397805 6.98947694
H 6.46131632 6.40328638 7.76799182
H 1.29638792 2.72975994 7.84664242
H 0.40205692 1.46645464 7.82926501
H 8.17358468 1.40641890 3.37859218
H 9.51635305 1.40195418 4.14956000
H 12.93831004 3.56621325 1.07610887
H 12.03128486 4.81405209 1.07697343
H 13.80372793 5.13345732 2.52530869
H 14.25697664 6.39434720 3.29720251
H 13.45648928 4.83619691 6.33739302
H 13.45267625 4.85400508 4.78883290
H 9.95971051 1.19131550 6.38595131
H 11.29188433 1.17829832 5.59790847
H 11.30262300 5.10759194 5.56854659
H 10.41495061 6.36898587 5.56225862
H 13.40008043 1.44649777 1.87240536
H 12.05362708 1.44373264 1.11285878
H 12.98931878 2.72913125 5.53218254
H 13.42681328 1.46425109 4.75944903
H 8.16558000 4.85865180 7.77848617
H 9.51113047 4.84547061 7.01514058
H 9.54027337 4.78313392 4.12027260
H 9.09286641 3.50983013 3.36773326
H 9.88422130 5.06244876 1.85526743
H 9.87829820 5.06489308 0.30664892
H 9.91768166 1.14858409 1.89251831
H 10.36741358 14.49421390 1.11670039
H 14.29665794 14.49197557 3.30833653
H 15.18530742 1.15375220 3.32355716
H 14.26293762 14.48131568 7.77861633
H 13.81198416 1.14094692 7.00269016
H 15.17194118 5.08230169 7.86008773
H 13.82103259 5.06022142 8.61297722
H 9.06163713 2.74777728 7.81495927
H 8.18189583 1.48054058 7.81181717
H 1.79316992 1.40770510 13.09323046
H 1.79022901 1.41446744 11.54585030
H 4.28746297 4.88558530 10.01194533
H 5.61739829 4.88084727 9.20627022
H 7.40614665 5.07700148 12.27258412
H 6.07843940 5.11307908 11.47926292
H 4.30627818 4.83145014 14.51434625
H 5.64068797 4.82959265 13.73803176
H 2.16516610 1.16212382 15.32422623
H 3.51349104 1.15868691 14.56148155
H 2.59760446 6.37632851 14.56282656
H 2.15686509 5.10989074 15.32814591
H 5.71202164 1.69389143 10.91025143
H 5.21942536 2.86716797 10.07037452
H 5.61696394 1.41372771 15.31675135
H 5.17906817 2.65698749 14.53822551
H 1.30245046 3.54876060 16.78331338
H 0.40736382 4.81075272 16.78570163
H 1.34858798 3.52581257 12.31979579
H 1.78268045 4.79326313 13.09108286
H 2.17020335 5.13102501 10.86490652
H 2.60097712 6.41091532 10.10270517
H 2.18943821 1.18269524 9.26973256
H 3.52473059 1.21208827 10.04881302
H 7.41926751 1.16628069 16.81705935
H 6.08450826 1.17528388 17.59890530
H 7.38311635 5.06188548 16.76741723
H 6.05010492 5.08152319 15.98697704
H 0.41620843 1.44212591 16.81628089
H 1.75528735 1.43971662 17.58461935
H 9.50135159 8.70830940 11.48677992
H 8.16157939 8.71401809 12.26799177
H 13.40470655 12.14641720 10.87784222
H 12.07740116 12.12606764 10.08864024
H 14.23683695 13.68818827 12.35000091
H 13.78160781 12.42595033 13.12229942
H 12.94067242 10.83933085 14.55882345
H 12.03805248 12.09166406 14.56660193
H 9.90760976 8.43255313 13.73577028
H 10.34685467 7.17466825 14.51670316
H 9.89219813 12.36323458 15.33749709
H 9.91083886 12.34143139 13.78913803
H 12.98947520 10.02913099 10.09469323
H 13.42486820 8.76380206 10.86659835
H 13.39166284 8.73037647 13.76825760
H 12.04573857 8.72230844 14.52599720
H 9.50889701 12.13356327 17.59419402
H 8.16309262 12.13254377 16.83013043
H 9.55228682 12.07540897 11.50635486
H 9.09398905 10.80418462 12.26667318
H 10.37762591 13.64894904 10.03994868
H 9.93256473 12.37993423 9.27872897
H 9.95497017 8.47166566 9.24824885
H 11.28410777 8.48319740 10.03958255
H 15.17518093 8.44906870 12.32256124
H 14.28509077 7.18908337 12.30592627
H 13.78875076 8.51999247 17.57861392
H 13.78652351 8.51296501 16.03179164
H 13.78606463 12.39769427 16.01504104
H 13.79895926 12.39528426 17.55850200
H 9.10795098 10.02154601 16.77723940
H 9.55825576 8.76824817 15.98615202
H 1.79523041 8.73426225 13.09491119
H 1.79114348 8.73953884 11.54647646
H 5.66767589 12.23268467 10.90095191
H 4.31604032 12.17598821 10.15443311
H 6.74374302 13.72739105 12.55502411
H 7.51325951 12.42309615 12.35861313
H 5.63211272 12.13811177 13.80551533
H 4.26469074 12.13260335 14.52697125
H 3.52869973 8.47811860 14.60246994
H 2.17985392 8.49595377 15.35544292
H 2.13448348 12.42011247 13.73605785
H 2.59234248 13.68624565 14.50516660
H 5.65881252 8.78107675 10.86427165
H 5.25037723 10.06729050 10.11571600
H 5.21160076 10.01505632 14.61398096
H 5.68073674 8.75756968 15.38421148
H 1.75436415 12.15541428 15.98581166
H 0.41483622 12.16444992 16.75725641
H 0.36124328 12.09208170 12.30580175
H 1.26661362 10.83483600 12.30804323
H 2.61770733 13.66795859 10.10893555
H 2.15003945 12.41276629 10.88829157
H 2.17970151 8.49533895 9.27053415
H 3.52352629 8.52458324 10.03948152
H 6.03034845 8.44168123 13.12246987
H 6.47313388 7.18836965 12.32921844
H 6.53086824 7.18115366 16.81135648
H 7.44012013 8.43400232 16.81264317
H 6.01148507 12.42845148 16.02658297
H 6.48384765 13.68704919 16.79488510
H 0.40968645 8.79142950 16.80486198
H 1.30160846 10.05076000 16.79588340
