381

O 9.09582320 1.77693015 12.25945084
O 12.96757396 4.51670247 10.06300952
O 14.24923306 5.39088878 12.32876585
O 12.96050427 4.46784979 14.56420762
O 10.41044662 0.81219366 14.49711613
O 10.37707937 5.38969872 14.52811230
O 12.99271184 1.77556314 10.06643830
O 12.98033846 1.73014496 14.54353097
O 9.09678028 4.49922798 16.76408207
O 9.07648294 4.52184229 12.27941378
O 10.37686537 5.41570549 10.04012630
O 10.40888695 0.84153480 10.04328514
O 14.28938457 0.84317922 12.29430630
O 14.27231015 0.86500965 16.79438429
O 14.26341648 5.42218368 16.78604832
O 9.16339843 1.68630945 16.68575511
O 9.07938501 9.04445056 3.34275893
O 13.00880341 11.79528549 1.11287170
O 14.28732036 12.73797427 3.36149375
O 12.97056042 11.81955870 5.59140916
O 10.37061683 8.15493031 5.58242602
O 10.37044779 12.69249859 5.58390582
O 12.96501772 9.05807975 1.08449170
O 12.96735607 9.07066143 5.56226253
O 9.07163393 11.81661062 7.84418929
O 9.09867803 11.76992579 3.34282878
O 10.40183085 12.64734910 1.10097922
O 10.37921166 8.18048652 1.09072098
O 14.23969178 8.12751902 3.32888787
O 14.28227114 8.19131122 7.80376218
O 14.27798583 12.72796533 7.83115168
O 9.08732148 9.07263553 7.83004149
O 1.28878452 9.05692265 3.32696664
O 5.23900043 11.80513550 1.13602053
O 6.52270731 12.69009076 3.36126303
O 5.21897721 11.79176988 5.60376416
O 2.63536614 8.14249964 5.53683253
O 2.62657366 12.70302669 5.59791728
O 5.19278084 9.06026958 1.08593997
O 5.22022018 9.04925131 5.55689148
O 1.33744531 11.82249712 7.84932468
O 1.32044360 11.79249016 3.36969936
O 2.61713289 12.65877411 1.11982169
O 2.60836700 8.18482620 1.10291723
O 6.49975695 8.12168008 3.31708332
O 6.50090298 8.14966905 7.80926145
O 6.48349124 12.73866610 7.85123395
O 1.34376865 9.07631392 7.77712854
O 1.29323255 1.75322081 3.34334143
O 5.20803522 4.48631348 1.06722944
O 6.48485522 5.39043526 3.30942615
O 5.20230581 4.47403462 5.57285992
O 2.60909897 0.84131159 5.56294497
O 2.62656790 5.40292343 5.57301344
O 5.15011461 1.80041681 1.01572762
O 5.21317073 1.74034616 5.55149763
O 1.31315944 4.52355883 7.83139037
O 1.32874744 4.49708075 3.32316215
O 2.61454876 5.43469972 1.09501441
O 2.53705371 0.81236461 1.07843242
O 6.49549862 0.84997643 3.30920622
O 6.50788962 0.88247031 7.81329136
O 6.48001497 5.40577061 7.82765461
O 1.32450539 1.78118622 7.81333112
O 9.09525929 1.77152307 3.33581266
O 12.96376445 4.49069143 1.06779690
O 14.26159003 5.38040986 3.31688045
O 12.97923005 4.51386912 5.58418345
O 10.38109768 0.83609307 5.56700405
O 10.38348287 5.42023476 5.60713280
O 12.97337088 1.74935438 1.10073857
O 12.95224161 1.77442477 5.59867844
O 9.06786784 4.48323513 7.82801852
O 9.09753881 4.52871526 3.33438315
O 10.38686260 5.42262899 1.08311519
O 10.38119826 0.81573338 1.12088804
O 14.24189654 0.87425304 3.35649737
O 14.27699126 0.86035876 7.82397653
O 14.25582841 5.44895912 7.83118145
O 9.10594789 1.75102055 7.80291878
O 1.34806385 1.77677512 12.30471259
O 5.18904971 4.51204757 10.08861328
O 6.49943792 5.46368355 12.30852589
O 5.20826702 4.56846360 14.55379255
O 2.63379079 0.84874228 14.53340806
O 2.61247839 5.45998771 14.55728196
O 5.23230692 1.76406659 10.06864338
O 5.14446479 1.77756690 14.62467103
O 1.31774099 4.53133537 16.79109246
O 1.31462010 4.51434524 12.33021219
O 2.60452656 5.41625283 10.07898139
O 2.63660340 0.87748595 10.05635515
O 6.50107345 0.84821434 12.34089408
O 6.49432852 5.40412845 16.79311601
O 1.32560602 1.78463615 16.78814743
O 9.08598748 9.06579077 12.27458529
O 13.00185067 11.79277768 10.07882093
O 14.28218671 12.71030356 12.33029454
O 12.99409941 11.79732831 14.58244938
O 10.36422530 8.12225456 14.52249403
O 10.40512239 12.70203490 14.54644952
O 12.99747570 9.04693631 10.06450353
O 12.95003272 9.05542740 14.55190205
O 9.11497298 11.77269812 16.76161157
O 9.10393379 11.80255921 12.32205749
O 10.40548792 12.69510948 10.07722686
O 10.40452642 8.15366226 10.05445133
O 14.26694490 8.13517767 12.31996342
O 14.25904635 8.16180261 16.79414117
O 14.28791685 12.72566002 16.82549634
O 9.08041166 9.04654970 16.76358364
O 1.31721843 9.05976924 12.29527573
O 5.22055187 11.79245701 10.09633241
O 6.50175650 12.71950200 12.32918641
O 5.21375804 11.88005110 14.61154387
O 2.61712240 8.19715702 14.54956238
O 2.61566950 12.72175730 14.57811703
O 5.19735792 9.05063729 10.04986428
O 5.20816411 9.11140102 14.54812855
O 1.33906736 11.80238118 16.80968938
O 1.33449984 11.79760662 12.34964291
O 2.63179071 12.72975732 10.10817148
O 2.60081493 8.15361170 10.04086908
O 6.49599210 8.20388226 12.31097340
O 6.48479526 8.15419953 16.79542488
O 6.64657707 12.80832358 16.87439891
O 1.30806896 9.06928588 16.79952745
H 9.07066854 2.73975943 12.26168560
H 8.18303007 1.47713354 12.28671213
H 13.40559033 4.85517891 9.27437939
H 12.06160240 4.84253301 10.03595252
H 13.77899389 5.05202160 13.09840957
H 13.78434102 5.06609787 11.55042560
H 12.97873596 3.50501795 14.58727629
H 13.42152220 4.77858425 15.35042619
H 9.94159942 1.15872481 13.73344024
H 9.95153159 1.14618376 15.28488812
H 11.27900561 5.05315816 14.55432973
H 9.93865822 5.06418120 15.32360674
H 12.95789781 2.73817412 10.06188342
H 12.08109864 1.46489643 10.05929811
H 12.07463499 1.39937170 14.51405592
H 13.41883373 1.41211415 13.74824006
H 8.19050167 4.81940251 16.79580030
H 9.52759789 4.82222080 17.56077469
H 9.51959389 4.83001478 13.07786609
H 8.17882162 4.86877894 12.30950686
H 9.90235080 5.07738603 9.27280609
H 9.90861846 5.09338929 10.81774909
H 10.40356238 14.48152689 10.07956802
H 9.94370125 1.15074351 10.82810051
H 13.85237151 1.18098914 11.50504389
H 15.19076790 1.17974086 12.27857546
H 13.83129412 1.17612594 15.99623451
H 15.17167286 1.20737698 16.76900239
H 14.27957624 6.38501330 16.78919129
H 15.18083297 5.12924466 16.79105365
H 9.11296241 2.64115148 16.73591273
H 9.55699146 1.39769326 17.50963024
H 8.17776390 8.70584116 3.35772880
H 9.51616406 8.71530819 4.13628703
H 13.47856268 12.13577076 0.34354215
H 13.46672326 12.13327144 1.88940283
H 14.26091675 13.70107128 3.37648593
H 13.81630490 12.43648063 4.14557979
H 12.95458797 10.85683314 5.57667677
H 12.05140598 12.10760826 5.58872536
H 10.36527155 7.19201375 5.61759853
H 9.92474114 8.46384364 6.37812682
H 9.89428713 12.37882927 6.35944667
H 9.90798293 12.35018912 4.81131337
H 12.96164743 10.02115587 1.10144491
H 12.04377019 8.77542268 1.08878106
H 12.06360944 8.73869781 5.55663530
H 13.39171710 8.72791338 4.76816607
H 9.52069582 12.14331350 8.63077657
H 8.17105717 12.15578568 7.87302409
H 9.56060334 12.06416168 2.55024684
H 9.10484642 10.80639556 3.32408938
H 11.31374979 12.33785074 1.08623904
H 9.98588330 12.32722183 0.29560686
H 9.90359027 8.49578627 0.31603947
H 9.90365113 8.49818664 1.86566624
H 14.24268176 7.16454812 3.30526838
H 13.79027228 8.42427698 2.53044340
H 15.18939806 8.51296898 7.76879925
H 13.83974349 8.51643389 7.01241312
H 14.26635373 13.69090201 7.80397586
H 13.81757932 12.42280750 7.04215062
H 9.55198970 8.77211656 8.61842974
H 9.09222713 10.03530704 7.85526992
H 1.26840262 10.01980347 3.35072689
H 0.37418870 8.75541078 3.33249865
H 5.69910117 12.12043411 1.92412900
H 5.72505749 12.14886088 0.38518889
H 7.42565330 12.35485487 3.37949518
H 6.08806900 12.37214337 4.15956902
H 4.30370629 12.09128514 5.59615130
H 5.19589643 10.82890981 5.58953141
H 2.16070338 8.43094963 4.75034722
H 2.62118926 7.17915701 5.53487016
H 2.61397569 13.66659726 5.60161796
H 2.17185691 12.41934206 6.39811947
H 4.27192742 8.77511843 1.09745363
H 5.18648494 10.02223206 1.10902766
H 5.65395273 8.71733710 4.76332760
H 4.31651459 8.71602710 5.53327985
H 0.43114127 12.14830770 7.86462567
H 1.76632569 12.14491394 8.64820983
H 0.42414220 12.14651447 3.38497987
H 1.75973008 12.11949993 4.16243436
H 3.52981580 12.35747449 1.15053976
H 2.18519421 12.33488991 1.91787887
H 2.12564469 8.50235319 1.87430051
H 2.13603843 8.50619614 0.32795769
H 6.48239524 7.15812852 3.29075373
H 6.04155872 8.42903401 2.52832330
H 7.40410836 8.48396276 7.80210803
H 6.07464765 8.47640595 7.00970671
H 6.03789311 12.42659212 7.05640146
H 6.47760292 13.70100646 7.81388082
H 1.80454206 8.78245294 6.98447789
H 1.36499792 10.03881373 7.77919175
H 0.37094182 1.47456685 3.34872902
H 1.29290850 2.71608316 3.32967539
H 5.17319078 3.51776549 1.04356539
H 4.29773829 4.79570870 1.07520323
H 6.01547608 5.05720523 4.08049155
H 6.02709864 5.04657360 2.53319200
H 5.66051215 4.77449046 6.36388849
H 5.22172222 3.51076298 5.58436858
H 2.15041083 1.18466823 6.33621307
H 2.13129629 1.16835177 4.79243849
H 2.18667816 5.08402940 6.36729635
H 3.52682569 5.06000598 5.59548833
H 4.26138864 1.44612405 1.06076513
H 5.61539660 1.45199728 1.77670659
H 5.64465037 1.41613467 4.75199659
H 4.30716880 1.41584221 5.53217524
H 1.74434956 4.84972754 8.62803910
H 0.41002255 4.85711042 7.84701172
H 1.79604488 4.81903993 4.10071623
H 1.80007602 4.83571641 2.55428708
H 2.15164270 5.14217070 0.30331531
H 2.60418445 6.39700353 1.08186699
H 2.54843070 14.45385241 1.11666235
H 2.09742350 1.11893041 1.87806928
H 7.40571400 1.16193768 3.31275328
H 6.53433647 14.49197798 3.32362589
H 6.07243043 1.19845575 7.01391038
H 7.41880098 1.19419732 7.77989335
H 6.02001983 5.12331010 8.62418723
H 6.47876868 6.36880425 7.83264229
H 1.78931058 1.48055905 8.60075719
H 1.33184763 2.74407953 7.83765103
H 9.10491522 2.73342100 3.31350465
H 9.54831217 1.46807370 2.54110915
H 12.06045000 4.82545451 1.05397632
H 13.39791152 4.82847636 0.27727932
H 13.82797942 5.05102453 2.52227080
H 15.17007511 5.06187560 3.29490127
H 13.43003790 4.79678984 4.78153097
H 12.98068904 3.55071830 5.57552921
H 9.92570067 1.14821885 4.77662332
H 10.35764880 14.47590997 5.54276686
H 9.94873187 5.07541014 6.39386097
H 11.28899111 5.09277529 5.61937544
H 12.96870324 2.71188322 1.06720321
H 13.42991118 1.45168770 0.30704709
H 12.05231914 1.43116746 5.61368681
H 13.39522577 1.44346373 6.38677057
H 9.05327249 3.52002995 7.81725259
H 8.15202919 4.78043048 7.82335774
H 9.52195729 4.85442622 4.13410899
H 8.18742710 4.84245089 3.34905614
H 9.93215692 5.12601505 1.87857394
H 10.37540181 6.38439219 1.10355052
H 11.29513110 1.11543521 1.10588611
H 10.40649651 14.45737217 1.12348272
H 13.77494432 1.19509494 2.57683003
H 13.76669104 1.20279125 4.12705644
H 13.84886858 1.19418609 8.61948641
H 15.18128484 1.19217785 7.83493337
H 13.81181645 5.14193678 7.03344756
H 14.25175034 6.41155354 7.79889313
H 9.57660582 1.41825635 8.57429599
H 9.57178453 1.42069418 7.02665287
H 1.80733957 1.49260868 11.50707573
H 1.34626005 2.74033283 12.29906403
H 5.22325671 3.55008292 10.10165437
H 5.65739102 4.82092133 10.87116029
H 6.04550094 5.17419925 13.10626095
H 6.48677012 6.42689687 12.31794114
H 5.66630000 4.84660226 15.35770484
H 5.19217042 3.61045398 14.56556677
H 2.17457087 1.15860051 13.74360057
H 2.60112830 14.48720310 14.51796736
H 2.62872604 6.42320025 14.55643072
H 3.53082568 5.17200120 14.55559858
H 5.70567874 1.44804483 9.29080463
H 5.69455493 1.42530731 10.84058171
H 5.49738189 1.56789645 15.47614322
H 4.23652570 1.43561751 14.61060855
H 1.78020486 4.83176089 16.00192014
H 1.33479743 3.56886656 16.77507648
H 0.40421992 4.82909976 12.34797267
H 1.74609549 4.86124490 13.11797818
H 2.17092329 5.09446791 10.87609032
H 3.50845287 5.08372551 10.09977215
H 3.55553658 1.16530671 10.05523595
H 2.65080764 14.51690399 10.07169592
H 6.49172164 14.48618357 12.35360652
H 6.05273702 1.13770755 13.13609475
H 6.03606488 5.09506166 17.58451362
H 6.48192800 6.36592039 16.82123599
H 1.76777991 1.43102118 17.56977867
H 1.79403852 1.44231730 16.02263488
H 9.55559451 8.77092308 11.48686394
H 9.10996297 10.02856720 12.27314219
H 13.46269635 12.13327095 9.30464752
H 13.47065599 12.12377600 10.85190195
H 14.26852219 13.67357349 12.33928017
H 13.82560223 12.41576703 13.12511463
H 12.99181040 10.83437894 14.59543776
H 13.45053344 12.09001283 15.37789311
H 10.35994977 7.15844813 14.50180433
H 9.91232266 8.42346142 13.72775787
H 11.32253547 12.40937372 14.55726683
H 10.42074948 13.66752178 14.53007189
H 13.00819277 10.00991165 10.05892688
H 13.45779563 8.76541560 9.26634541
H 13.39349382 8.72499117 13.76348378
H 12.04772986 8.72014647 14.52176108
H 9.57609471 12.07947674 15.97162756
H 9.10983070 10.80858206 16.73132875
H 8.20072669 12.13263805 12.34511659
H 9.54394997 12.12990143 13.11480180
H 9.97241211 12.36766762 10.87222329
H 11.31035205 12.36578764 10.09507498
H 11.32400254 8.44006102 10.05425304
H 10.41190748 7.19023296 10.04968529
H 14.24581794 7.17219996 12.30880750
H 13.81649116 8.43197759 11.52178223
H 13.77994862 8.48438102 16.02391164
H 13.79017185 8.48768215 17.57063567
H 15.20471964 12.43172788 16.81808929
H 14.30339195 13.68891219 16.80989669
H 8.17558090 8.71689113 16.75402532
H 9.51348691 8.69576623 15.97768047
H 1.74358930 8.73312087 11.49580284
H 0.41614379 8.71877391 12.28761133
H 5.66269893 12.11046023 9.30145544
H 5.22833902 10.83024382 10.05233771
H 6.02934241 12.40196369 13.10426686
H 6.03777155 12.37770304 11.55623744
H 5.65499117 12.23219428 15.38450945
H 4.30073092 12.19015525 14.63492579
H 3.51812451 8.53577637 14.53155218
H 2.18476166 8.51329152 13.74894403
H 2.14588284 12.39149111 15.35291353
H 2.15447733 12.37386014 13.80582020
H 4.29105989 8.72502375 10.02931169
H 5.63097429 8.71927151 9.25618939
H 5.23507077 10.07172027 14.55207310
H 5.67251059 8.82088753 13.75497882
H 1.33025304 10.83886251 16.81876010
H 1.79507865 12.08027004 17.61183627
H 0.42136508 12.10524166 12.33973316
H 1.30147695 10.83508076 12.32402461
H 3.53200659 12.38865869 10.11904582
H 2.19983280 12.39743151 10.90163906
H 2.58902672 7.19046943 10.03054402
H 2.15467110 8.44938180 9.24050896
H 7.40644452 8.51830418 12.27217679
H 6.05964047 8.51097274 11.50907291
H 6.01611738 8.48527719 17.56954251
H 6.01677742 8.48912683 16.02454308
H 7.53738149 12.42566376 16.82551646
H 6.77718418 13.73586768 17.00422455
H 0.40340724 8.73910410 16.77529912
H 1.74718463 8.74751689 16.00549637
