381

O 9.08372440 1.77588916 12.32629468
O 12.95896183 4.53502141 10.07067315
O 14.26624566 5.45182739 12.31316690
O 12.97027576 4.54285950 14.56333472
O 10.39848574 0.85312379 14.56469644
O 10.38080745 5.43586228 14.58130739
O 12.97193399 1.80721448 10.10370825
O 12.97302590 1.80205923 14.57447220
O 9.05900728 4.49232720 16.79729955
O 9.09374599 4.52120135 12.33585183
O 10.36517205 5.41628971 10.08089993
O 10.41367773 0.85809463 10.08038053
O 14.31407951 0.93127125 12.35679042
O 14.23765341 0.86584778 16.81289570
O 14.26954200 5.42078856 16.80537123
O 9.08287255 1.74789413 16.79864425
O 9.09207185 9.08064428 3.33124421
O 12.96965814 11.82325219 1.07741781
O 14.27064590 12.70931948 3.30161795
O 12.95517011 11.76710371 5.54691425
O 10.35930175 8.14044369 5.57580748
O 10.38209180 12.70479330 5.55966792
O 12.95091738 9.08220651 1.07071490
O 12.94245561 9.05750966 5.56257277
O 9.12995396 11.76921456 7.81877325
O 9.07657490 11.81647487 3.31542652
O 10.37925646 12.71474604 1.07324013
O 10.37073958 8.15167563 1.09503591
O 14.23268865 8.16504062 3.33050842
O 14.24801513 8.12663422 7.75799688
O 14.38582360 12.65897593 7.79837392
O 9.08276099 9.05710085 7.82245455
O 1.29632835 9.05327538 3.32368195
O 5.17778489 11.78790515 1.11562173
O 6.48593024 12.71152272 3.33178039
O 5.23854723 11.79321705 5.59946123
O 2.61851788 8.13828045 5.55200161
O 2.64360890 12.70300654 5.58493858
O 5.19184860 9.05002366 1.08816759
O 5.20795049 9.05217378 5.56239325
O 1.37315071 11.78185225 7.82409245
O 1.32995192 11.79775735 3.35183363
O 2.59176780 12.72258388 1.09017014
O 2.61133843 8.12485288 1.09928034
O 6.50669460 8.15284607 3.32164415
O 6.49747265 8.15330669 7.79809393
O 6.53562896 12.71274879 7.83751427
O 1.33347194 9.01625775 7.81268962
O 1.32591394 1.76001685 3.32522062
O 5.21489884 4.49532687 1.10732101
O 6.51343876 5.40606247 3.33716575
O 5.20675389 4.49081621 5.57894864
O 2.60644305 0.83690239 5.57699864
O 2.61899219 5.40463131 5.58603854
O 5.18109197 1.75779104 1.06936464
O 5.18864904 1.75273192 5.57978297
O 1.32726646 4.49472928 7.82511301
O 1.32179500 4.50195174 3.34312757
O 2.62337032 5.38575954 1.10466577
O 2.60010321 0.86227932 1.06785778
O 6.47445956 0.85165899 3.32669345
O 6.49364739 0.86222048 7.83071884
O 6.48277313 5.41459451 7.82537822
O 1.34233480 1.76700136 7.83846619
O 9.07028197 1.76890778 3.34000040
O 12.98713937 4.50003416 1.10261188
O 14.26947257 5.42142642 3.34064117
O 12.98023712 4.45914119 5.56191942
O 10.38123475 0.84363711 5.57636153
O 10.39893271 5.39075076 5.57233912
O 12.96847024 1.75511226 1.12071566
O 12.98609499 1.71983265 5.59198853
O 9.07686171 4.50469809 7.81900188
O 9.10051677 4.51307631 3.32326677
O 10.39477769 5.41541515 1.07382552
O 10.38432732 0.85299980 1.10292755
O 14.27802324 0.85236401 3.34138312
O 14.26256206 0.86672843 7.85067106
O 14.26211161 5.37986765 7.80548599
O 9.09141276 1.74846946 7.81680768
O 1.36653756 1.76544988 12.30609715
O 5.21312767 4.50960759 10.07331131
O 6.50167704 5.41472304 12.31261911
O 5.19631473 4.50987323 14.54090750
O 2.61512568 0.84904010 14.57200418
O 2.61750580 5.41937153 14.54403025
O 5.21437391 1.76891897 10.08259890
O 5.19726858 1.77600817 14.55968795
O 1.32245073 4.52368921 16.79552519
O 1.32006987 4.51205102 12.30027653
O 2.62381183 5.41514106 10.05977098
O 2.64191246 0.84202848 10.07693574
O 6.50117321 0.87369603 12.31837377
O 6.49645871 0.85146381 16.78514520
O 6.46936821 5.42789121 16.79723358
O 1.28714106 1.78367714 16.77996869
O 9.08100343 9.07119059 12.33200883
O 14.18264576 12.76169251 12.32091388
O 12.93489346 11.81303604 14.49705949
O 10.39185408 8.17091957 14.57185180
O 10.36552056 12.70045691 14.56111714
O 12.83483077 9.10024035 9.96796283
O 12.98767135 9.08161561 14.54530694
O 9.06234839 11.79027814 16.80499416
O 9.07431334 11.78956202 12.33954497
O 10.38809538 12.64082611 10.17438066
O 10.34448304 8.14178717 10.09716811
O 14.23287402 8.18387490 12.24751360
O 14.28059881 8.16997658 16.77028766
O 14.26178592 12.72875599 16.76130096
O 9.07360271 9.05231782 16.80240252
O 1.30836505 9.09056794 12.31071998
O 5.22236445 11.78590783 10.07395196
O 6.47764606 12.72778630 12.31811022
O 5.20103300 11.81664128 14.57818803
O 2.62151689 8.15422998 14.54909917
O 2.61776054 12.70592663 14.54760668
O 5.22393417 9.04115230 10.05378993
O 5.20330597 9.07774448 14.53758802
O 1.29701674 11.80521766 16.77432054
O 1.31608970 11.84277340 12.26530359
O 2.63631284 12.70363308 10.04720923
O 2.62010877 8.15925579 10.06982935
O 6.49629152 8.15632230 12.30459076
O 6.48197202 8.17078610 16.78062915
O 6.48974411 12.71041656 16.82383602
O 1.34067632 9.05952667 16.80314485
H 9.10187761 2.73819788 12.35046081
H 9.54788601 1.47067545 13.11202694
H 12.96957098 3.57079787 10.09193761
H 13.42106650 4.83062319 10.86130991
H 15.16824763 5.11437280 12.32958504
H 13.83299033 5.12986288 13.11101315
H 13.43043195 4.83631023 15.35756869
H 12.97811274 3.57961404 14.58318439
H 10.41586058 14.49292557 14.55862520
H 11.31346889 1.15288601 14.55902264
H 11.28487936 5.10336852 14.59908985
H 9.94061663 5.09415653 15.36681544
H 12.07105145 1.46214980 10.11722863
H 13.40981016 1.48595111 10.89637412
H 13.47019812 1.49786844 13.80802139
H 13.43089443 1.46668988 15.35312370
H 9.03717901 3.52957384 16.79928712
H 8.14492395 4.79424339 16.79465158
H 8.18693909 4.84604443 12.34658536
H 9.52165637 4.85817275 13.12981676
H 11.27207764 5.09141945 10.09301116
H 9.93931095 5.07920917 10.87665205
H 9.92388501 1.18497300 10.84041065
H 9.94414671 1.16535890 9.29915331
H 14.32094038 14.57497306 12.36548561
H 15.23624094 1.21500934 12.33314066
H 14.23651518 14.50519390 16.81807926
H 13.78381443 1.15161215 17.61363526
H 13.83783013 5.09026362 17.60070884
H 15.17573462 5.09466040 16.82333021
H 9.55548007 1.42742506 17.57425607
H 9.56119246 1.42498482 16.02755737
H 9.10196644 10.04384187 3.35264637
H 9.53651937 8.77542962 4.12906768
H 13.43529421 12.15240539 0.30276018
H 13.45019756 12.14502891 1.84951246
H 15.18507179 12.40945001 3.33109318
H 14.29582248 13.67180924 3.32270284
H 13.39246699 12.10642967 4.76090029
H 12.05817493 12.11690638 5.53773804
H 9.90820032 8.42978694 6.37606160
H 10.36298072 7.17758214 5.58985484
H 9.91703491 12.41704616 4.76752130
H 10.37143993 13.66782904 5.55177546
H 12.96838848 10.04517472 1.05062213
H 13.41751679 8.78150626 0.28482966
H 12.02716643 8.75768015 5.56891280
H 12.92317948 10.02336799 5.55899405
H 8.23321110 12.11748743 7.81616108
H 9.55871707 12.10714048 7.02592110
H 8.17002579 12.14157237 3.29428504
H 9.51281607 12.14351692 2.52178007
H 10.40094756 13.67781215 1.08097926
H 11.29596858 12.41900646 1.08252049
H 11.27208227 8.49073341 1.10509545
H 9.93884247 8.48466954 1.88951042
H 13.75699448 8.49661602 4.10048797
H 13.76723590 8.49099226 2.55368005
H 13.76129931 8.45760903 8.51418505
H 13.78582282 8.45966798 6.97848706
H 13.87457282 12.36957648 7.04260750
H 14.30589638 13.61235300 7.82744634
H 9.51826194 8.75809961 8.62542566
H 9.10939001 10.02229377 7.83336554
H 1.29095272 10.01648119 3.33392817
H 0.37571634 8.77110688 3.32620970
H 4.26468954 12.09265175 1.09971086
H 5.15208610 10.82496971 1.10440368
H 6.03709679 12.38167267 4.11771215
H 6.00326144 12.36881078 2.57178334
H 5.70136085 12.09048408 6.39007521
H 5.24710358 10.83061193 5.61186055
H 2.14900220 8.43602488 4.76577053
H 2.60943140 7.17503762 5.53784710
H 3.55032171 12.38087862 5.61255728
H 2.20771677 12.36942181 6.37800282
H 5.62102403 8.73263017 0.28650200
H 4.29275067 8.70483132 1.08032962
H 4.30252513 8.72480269 5.54060977
H 5.64165748 8.72611809 4.76661733
H 0.45403743 12.09340922 7.80885587
H 1.33755236 10.82175972 7.82353283
H 1.80756955 12.11788314 4.12486267
H 1.79125052 12.13429049 2.57702859
H 2.58553530 13.68564870 1.06543929
H 2.13296781 12.42410873 0.29894862
H 2.14689699 8.43136641 1.88562013
H 2.60107595 7.16198266 1.12690751
H 6.07093203 8.47641828 2.52615637
H 7.40669115 8.49509293 3.30649336
H 7.40144904 8.48595119 7.78460130
H 6.06547304 8.48257453 7.00237951
H 6.51031354 13.67498030 7.85339753
H 6.07721888 12.41128603 8.62826234
H 0.42853392 8.69431304 7.77353503
H 1.77335085 8.70054411 7.01593327
H 1.77761256 1.46732073 2.52657993
H 1.33763572 2.72272240 3.31398926
H 5.66648555 4.84049098 0.32979700
H 5.69292899 4.82485895 1.87630293
H 6.52917658 6.36904777 3.33550540
H 7.43225117 5.11628773 3.33514432
H 5.66565524 4.78924063 4.78691491
H 5.21235990 3.52746266 5.55767687
H 2.14895064 1.13470680 4.78419028
H 2.60030477 14.47556188 5.55976980
H 2.18747887 5.07581622 6.38208139
H 3.52346675 5.07391790 5.60054493
H 5.65331078 1.46423739 0.28297882
H 5.20652166 2.72076438 1.06553998
H 4.28369731 1.42260659 5.55733862
H 5.62261845 1.41912759 4.78737914
H 1.31561510 3.53077869 7.82883469
H 0.40869621 4.78291725 7.81789277
H 0.41978185 4.83915161 3.35983380
H 1.75609019 4.82618897 4.13923311
H 3.52927070 5.05936395 1.13178299
H 2.18296395 5.05566231 1.89539260
H 3.50647904 1.18880041 1.04136075
H 2.15918166 1.19900652 0.28107588
H 6.46961873 14.49056400 3.30914938
H 6.01562328 1.14499373 2.53300173
H 6.01664940 1.18138824 7.05775549
H 6.02903008 1.19572997 8.60532472
H 6.47629413 6.37734175 7.79343150
H 6.03560286 5.10715928 7.02951542
H 1.79385117 1.42724876 7.05893037
H 1.81740087 1.43062245 8.60507833
H 8.15481360 1.47120479 3.33222801
H 9.05197728 2.73150926 3.33332457
H 13.41436863 4.83883600 1.89683789
H 12.08242927 4.83001259 1.11024038
H 13.81126637 5.10659098 4.12737649
H 14.24138389 6.38395561 3.36274022
H 13.43571304 4.75320978 6.35760633
H 12.99395242 3.49542625 5.57718549
H 9.91069761 1.16981716 6.35134396
H 9.91270315 1.18311590 4.80701071
H 11.29940363 5.04966137 5.59575045
H 9.95486014 5.06052677 6.36021813
H 12.98865785 2.71784641 1.13338204
H 13.43290495 1.45779216 1.91154400
H 13.41320608 1.39658222 6.39371061
H 12.07950152 1.39557151 5.60630873
H 9.50347796 4.83215417 8.61676989
H 8.17300948 4.83680247 7.83197478
H 9.57727109 4.83052969 4.09757224
H 9.57185060 4.83777745 2.54893064
H 10.37325663 6.37812305 1.05464944
H 9.92343908 5.10981645 0.29196453
H 11.28768017 1.18599967 1.13585622
H 9.93986183 1.17869507 1.89272357
H 13.84914082 1.16056665 4.14730600
H 15.18172588 1.18558195 3.35786598
H 13.83329086 1.19973105 8.64366952
H 15.16742164 1.19104283 7.86652435
H 14.24612093 6.34213978 7.79620121
H 13.80023385 5.10398450 8.60410436
H 9.06601768 2.71040937 7.81787008
H 8.17555355 1.45049383 7.82326625
H 1.82965147 1.43849559 13.08467996
H 1.83576264 1.42510956 11.53539188
H 4.30723692 4.83584761 10.05074626
H 5.64279558 4.83468501 9.27431187
H 6.05011296 5.11685142 11.51516534
H 6.48755086 6.37764171 12.29336720
H 5.21175433 3.54654700 14.53291514
H 5.66108558 4.80352925 13.74978537
H 2.60218036 14.48880979 14.59277059
H 2.13980784 1.15442206 15.35222393
H 3.52249692 5.08826417 14.52003689
H 2.18109403 5.08532706 13.75312056
H 5.22305905 2.73178121 10.10065587
H 5.67816629 1.47318668 10.87393137
H 4.29386391 1.44334554 14.58197769
H 5.63606775 1.43937098 15.34841993
H 1.80001823 4.83960298 17.57017424
H 1.79076873 4.85291882 16.02128119
H 1.34549580 3.54969400 12.28082930
H 1.77706685 4.81433142 11.50768290
H 2.16007116 5.11807902 9.26926230
H 2.60941875 6.37792195 10.04648832
H 2.66683119 14.48118719 10.06002130
H 3.55635196 1.14601827 10.07575514
H 6.06467034 1.20272603 13.11096097
H 7.40899153 1.19589614 12.34441781
H 6.51391863 14.49061024 16.79802837
H 7.41454104 1.14329711 16.78750780
H 6.01582364 5.12871948 16.00222883
H 6.46575819 6.39074198 16.77184571
H 0.36995114 1.49076108 16.79539921
H 1.27477176 2.74665769 16.77899668
H 9.08355814 10.03639634 12.34772706
H 9.54008558 8.77917478 13.12604394
H 13.71331224 12.40988603 13.09399056
H 13.64436905 12.56324824 11.56951518
H 12.92764157 10.84935319 14.52080642
H 12.01406863 12.10113694 14.53407571
H 11.30813855 8.46464901 14.56566502
H 10.40926889 7.20739588 14.57294623
H 9.88560870 12.38064734 13.78733491
H 9.89376049 12.37574987 15.33534672
H 11.92720053 8.75838573 10.01550332
H 12.75229641 10.03272704 9.83613596
H 13.44263031 8.75342413 13.76461350
H 13.47011391 8.75306445 15.31305750
H 9.07989830 10.82745648 16.82658805
H 9.53682592 12.09539537 17.58622688
H 9.52589984 12.11356179 11.54436024
H 8.17513322 12.12872445 12.30739930
H 9.99100390 12.34762463 9.35317981
H 10.42867330 13.59599504 10.11827896
H 10.33629445 7.17703090 10.11170178
H 9.89460847 8.44243487 10.89572423
H 13.76198315 8.47816547 11.46758556
H 14.23084565 7.21940888 12.23513674
H 14.29343999 7.20712486 16.78847178
H 15.19960169 8.45844403 16.79036302
H 13.82113318 12.40226997 15.97243899
H 15.16395615 12.38973052 16.73894837
H 9.55581415 8.73127360 16.03283260
H 9.53823906 8.72184863 17.57900569
H 1.29486246 10.05287981 12.30404755
H 0.39178621 8.80115279 12.28957276
H 5.66763183 12.08820838 10.87277229
H 5.24321926 10.82361873 10.08686715
H 6.03174462 12.43599870 13.11946813
H 6.47222815 13.69048977 12.33222085
H 5.65476363 12.10842830 15.37650353
H 5.21786234 10.85374774 14.58445617
H 2.60894615 7.19089193 14.52193500
H 2.15430339 8.46093626 13.76602851
H 3.52589224 12.38230331 14.53603755
H 2.19639037 12.39620361 13.74099683
H 4.31677287 8.71927105 10.03991549
H 5.65032456 8.71537231 9.25359266
H 4.30056182 8.74278264 14.52345693
H 5.63561643 8.74598473 13.74311936
H 1.77031363 12.09561921 15.98749253
H 1.32608000 10.84245420 16.77374506
H 0.41989404 12.17756933 12.23821372
H 1.76049924 12.15786926 11.46775832
H 2.20761852 12.36976983 9.24893017
H 3.53860526 12.36616055 10.04065643
H 2.15222972 8.49793354 10.83907032
H 2.15018873 8.48133517 9.29263296
H 7.40042330 8.48813674 12.29636225
H 6.07250743 8.47837169 11.50140278
H 6.05536592 8.50668923 15.98515622
H 7.38968988 8.49303427 16.76890226
H 7.39247494 12.37350403 16.84277933
H 6.05261005 12.38194230 17.61627403
H 1.81051005 8.72888525 16.03050372
H 1.80492488 8.72474433 17.57819814
