381

O 9.09338610 1.76906371 12.30549020
O 12.98982374 4.53239494 10.06705076
O 14.29170581 5.43648392 12.32773001
O 12.93937506 4.51246305 14.55266622
O 10.37639547 0.87926090 14.55487259
O 10.27419749 5.45714273 14.49267517
O 12.97133575 1.78086230 10.04388278
O 12.95896495 1.78669116 14.54158511
O 9.07939031 4.48326244 16.82718478
O 9.08465792 4.52599166 12.28591410
O 10.38984175 5.41453765 10.06276575
O 10.38621289 0.84287760 10.07342320
O 14.24624213 0.87595225 12.29857470
O 14.26658392 0.86615972 16.79320101
O 14.27148153 5.40334550 16.79114154
O 9.06521169 1.74664763 16.79970493
O 9.06728318 9.06341535 3.36486938
O 12.95602913 11.81868085 1.10082093
O 14.25426020 12.71571286 3.33586646
O 12.98198161 11.77114463 5.58425426
O 10.37950964 8.15215890 5.58046209
O 10.39726860 12.71372491 5.57481337
O 13.00127102 9.08886162 1.10854628
O 12.97483556 9.02574350 5.57771250
O 9.08984312 11.82354460 7.81439124
O 9.08738431 11.80560691 3.33352758
O 10.36535197 12.70031652 1.07427319
O 10.42159306 8.11179693 1.17253897
O 14.27477460 8.15368939 3.33023217
O 14.26097045 8.15570434 7.82401403
O 14.24926358 12.71701919 7.82498349
O 9.08239921 9.08093067 7.78777445
O 1.33285417 9.06053541 3.34883037
O 5.19531240 11.81019074 1.09492981
O 6.50001848 12.70104581 3.33695836
O 5.20320448 11.79476114 5.57097038
O 2.61228113 8.14489237 5.60658845
O 2.61398816 12.69873484 5.57971077
O 5.19803674 9.06556198 1.07577348
O 5.19513730 9.06006938 5.58021622
O 1.31509243 11.82113750 7.83481035
O 1.30728871 11.80553872 3.33929098
O 2.59814313 12.72246910 1.09514272
O 2.62031952 8.14973471 1.10853100
O 6.47963686 8.15278322 3.32789231
O 6.49078162 8.16076509 7.82327789
O 6.50052510 12.72577550 7.80469048
O 1.31058468 9.07991219 7.83962707
O 1.31611714 1.76620992 3.34141974
O 5.19191002 4.49380396 1.11716174
O 6.51692865 5.41176129 3.32721691
O 5.21632151 4.49335019 5.56317164
O 2.60592358 0.83896620 5.56900572
O 2.63157757 5.40303561 5.58104592
O 5.20091193 1.75252016 1.09317295
O 5.19385002 1.75160286 5.56438534
O 1.32879169 4.49645941 7.80513555
O 1.30552177 4.49806559 3.35263991
O 2.61194697 5.40632907 1.11213068
O 2.61419382 0.85694459 1.10856105
O 6.49320249 0.83965564 3.32715515
O 6.47103555 0.86898757 7.83225593
O 6.49575608 5.41405896 7.81348814
O 1.33117989 1.75389220 7.82017312
O 9.07597048 1.76816218 3.33709892
O 12.97178846 4.48869913 1.08966120
O 14.24217338 5.41563596 3.34512699
O 12.97288848 4.50547170 5.59017092
O 10.36892426 0.85958814 5.57960192
O 10.39072853 5.42030465 5.58725948
O 12.95849895 1.74219262 1.10613512
O 12.96457162 1.76806794 5.58184414
O 9.08868039 4.48629969 7.82141603
O 9.10347874 4.50948933 3.34221626
O 10.38777216 5.39931991 1.08832181
O 10.35590839 0.84841226 1.09462875
O 14.26777290 0.85504606 3.34655754
O 14.27409840 0.85666716 7.81276478
O 14.28378801 5.41264620 7.82327431
O 9.07766142 1.73872324 7.83414840
O 1.31721107 1.78086282 12.32832745
O 5.19199280 4.52099674 10.06537920
O 6.50071493 5.37249528 12.31596718
O 5.19576215 4.47699007 14.55306800
O 2.58920901 0.85042367 14.56473754
O 2.61927950 5.43996075 14.54793276
O 5.19046641 1.78479491 10.08723647
O 5.18245913 1.74627580 14.52850260
O 1.33061702 4.53031850 16.79508336
O 1.33482127 4.51631064 12.30172978
O 2.60966107 5.42856402 10.04766659
O 2.61870107 0.86724100 10.08021581
O 6.50361649 0.83945980 12.30294595
O 6.47321678 0.85798910 16.78737969
O 6.47165165 5.38015406 16.80843506
O 1.31290911 1.78332332 16.81788340
O 9.17345693 9.02242956 12.19083902
O 12.97508615 11.78615865 10.07211164
O 14.28695105 12.73987936 12.28734641
O 13.04867458 11.86207351 14.56581404
O 10.42200287 12.74714748 14.54549974
O 12.98709974 9.04231161 10.06714519
O 12.96694307 9.08409620 14.47350477
O 9.10006759 11.78933704 16.77429599
O 9.11964220 11.82207675 12.30562538
O 10.38986191 12.70972820 10.06464321
O 10.41703825 8.13509622 10.00913620
O 14.22513376 8.15925333 12.31027160
O 14.24308110 8.13845882 16.78235339
O 14.26773813 12.73176941 16.83353277
O 9.04763016 8.96729488 16.82944006
O 1.30565045 9.06965264 12.31758895
O 5.22203782 11.78739794 10.04903222
O 6.50345476 12.71041119 12.30303080
O 5.20508980 11.81504586 14.54829795
O 2.61601365 8.18023600 14.55481835
O 2.60041543 12.71989040 14.56122722
O 5.22752359 9.04510629 10.08357706
O 5.19802263 9.06505521 14.56653227
O 1.31269137 11.79847573 16.79367964
O 1.32975304 11.81056259 12.29369173
O 2.63649706 12.72475196 10.06288156
O 2.61115141 8.16692548 10.06920647
O 6.50131779 8.13544825 12.31877443
O 6.49309914 8.15055125 16.79783665
O 6.48735932 12.71285404 16.79103072
O 1.31587690 9.06026815 16.82334499
H 9.09824431 2.73016231 12.26828682
H 9.55288451 1.45864279 11.51724992
H 13.46161531 4.85950496 9.29301515
H 13.46302477 4.85479965 10.83949713
H 13.84862714 5.09591032 13.11005818
H 15.19555021 5.10157763 12.34346429
H 12.90460630 3.54788678 14.54649451
H 12.03500438 4.82667227 14.53700475
H 9.90286623 1.20265820 13.78084181
H 9.89895566 1.19110508 15.33120985
H 10.10961484 6.38822847 14.50049349
H 9.84081893 5.12388701 13.68994871
H 12.98836398 2.74334902 10.03261368
H 13.43244521 1.48447087 9.25180894
H 12.05621277 1.44964792 14.53211676
H 13.38722417 1.45510254 13.74444088
H 9.52638423 4.81429438 16.04720792
H 9.55396604 4.83031675 17.59278959
H 9.52242075 4.85887336 11.49288702
H 8.16965289 4.83218205 12.25875032
H 11.30670783 5.12093212 10.06486849
H 10.41143361 6.37943444 10.03828084
H 11.29808687 1.15127718 10.05833942
H 10.41774872 14.48145557 10.07660613
H 14.24828372 14.51522722 12.26970571
H 13.80109257 1.17665004 11.49906610
H 15.16791717 1.20626894 16.78094160
H 13.83115832 1.19485442 16.00060446
H 13.83369741 5.06739662 16.00344443
H 15.18242085 5.08878611 16.76596662
H 9.08251734 2.70836073 16.83788795
H 9.51969513 1.43531161 17.59053195
H 8.15164132 8.76585344 3.34494904
H 9.04778572 10.02599729 3.35064546
H 12.04594582 12.13578888 1.11503066
H 13.38503828 12.14726534 1.89862308
H 15.16922214 12.41422405 3.33520837
H 14.28091862 13.67848855 3.34610213
H 13.43220123 12.08015980 4.79115868
H 12.99201894 10.80862647 5.55404764
H 9.90199380 8.48006605 4.81035041
H 9.91493881 8.49519227 6.35264538
H 11.29630833 12.37084847 5.60002579
H 9.95395269 12.38828405 6.36589597
H 12.99673175 10.05202353 1.07892881
H 13.43233171 8.78336186 0.30552384
H 12.06564653 8.70734328 5.55442107
H 13.40876660 8.69844487 4.78263773
H 8.18839461 12.16255603 7.82636977
H 9.52028108 12.14221686 8.61482879
H 9.56633669 12.13330450 4.10181191
H 9.55117706 12.12565342 2.55253140
H 9.91434427 12.39226206 0.27898756
H 10.34233721 13.66212174 1.05236783
H 9.97140190 8.45550300 1.95054930
H 11.31294271 8.47125006 1.17942658
H 13.84843811 8.50397665 2.54019552
H 15.18147475 8.47835614 3.32263019
H 14.26562947 7.19276737 7.80472857
H 13.80501174 8.44355068 7.02502866
H 13.79444800 12.36973772 7.05002652
H 13.78022516 12.38271366 8.59652504
H 9.05938516 10.04358396 7.80060054
H 8.16794036 8.78037493 7.80348228
H 1.81084817 8.73124307 2.57999517
H 1.79309354 8.72745417 4.12613869
H 5.63433133 12.13183405 1.88950727
H 4.29053095 12.13680218 1.12102091
H 7.41680476 12.40496992 3.33248352
H 6.52244305 13.66390926 3.33510184
H 5.21398016 10.83151874 5.55507186
H 5.66212948 12.09152239 4.77769265
H 2.14903494 8.44880994 6.39394465
H 2.60315867 7.18221150 5.62632392
H 2.18159378 12.37589079 6.37717883
H 3.51982719 12.37121292 5.59844024
H 5.66579952 8.76466036 0.28744635
H 5.20785811 10.02804925 1.05689103
H 4.29102175 8.72977715 5.61236895
H 5.63608075 8.73496711 6.37268526
H 1.75414328 12.15534522 8.62416458
H 0.41167263 12.15385610 7.85229667
H 1.77107541 12.10411216 4.12907726
H 1.32564584 10.84282853 3.36008159
H 2.13729356 12.38861977 0.31846115
H 2.12614758 12.38803425 1.86510265
H 2.64678652 7.18708360 1.11365580
H 3.53515648 8.45354599 1.09049581
H 6.01435642 8.48369841 2.55208746
H 6.00627851 8.47672192 4.10117558
H 6.04576030 8.44727626 8.62835052
H 6.48869731 7.19810581 7.83504251
H 6.46860114 13.68804120 7.79499461
H 6.04422993 12.42298563 7.01234029
H 1.29049827 10.04304217 7.83438784
H 0.39461359 8.78257882 7.83406186
H 1.78609948 1.43992475 2.56617261
H 1.78535693 1.42974824 4.11270347
H 5.64873521 4.82276807 0.33532395
H 5.67580456 4.82691405 1.88103272
H 6.52633453 6.37506911 3.33073712
H 7.43563825 5.12268349 3.33235381
H 5.21946066 3.53044534 5.53980095
H 5.67673262 4.79324381 4.77219368
H 2.15826909 1.14057355 6.36674041
H 2.59585655 14.47817910 5.59512922
H 2.18885565 5.07931933 4.78950794
H 3.53795026 5.07798645 5.54877486
H 5.65022923 1.46534308 0.29068914
H 5.20661971 2.71577778 1.08435517
H 4.28966029 1.42096610 5.54359456
H 5.63238995 1.41455916 4.77574543
H 1.79614787 4.78720610 7.01427756
H 1.34165432 3.53336541 7.79725335
H 1.28057830 3.53491201 3.35003404
H 0.39189017 4.80118297 3.35247615
H 2.16574273 5.07830367 1.90002292
H 3.51421094 5.06940648 1.14173613
H 2.62634984 14.49575164 1.09916222
H 3.53269938 1.14764020 1.10114416
H 6.06227315 1.16680628 2.53003767
H 7.39387505 1.18057867 3.31468272
H 6.00004835 1.20304961 8.60243187
H 6.00912380 1.19803210 7.05410182
H 7.39840753 5.07975277 7.80108363
H 6.06680129 5.08139429 7.01806925
H 1.76177660 1.43259421 8.61923659
H 0.42569931 1.42567503 7.83733735
H 9.09435441 2.73089910 3.35952136
H 9.52861796 1.46443231 4.13132739
H 12.98043611 3.52549470 1.08090274
H 13.43747843 4.77749216 0.29861767
H 14.24303437 6.37863606 3.31753487
H 13.79451000 5.11434177 2.54805829
H 13.39898564 4.83651649 4.79198290
H 12.07049773 4.84300216 5.57978570
H 9.91154905 1.14303860 6.37854342
H 10.37314053 14.49862130 5.59333539
H 9.92847910 5.10988424 6.37288181
H 10.36812096 6.38363352 5.61196694
H 13.42729979 1.41684161 0.33113650
H 13.43487175 1.41762967 1.87789994
H 12.94270794 2.73131982 5.58308046
H 12.04864707 1.47050419 5.58053858
H 9.09642543 3.52361797 7.84521053
H 9.54630675 4.78674308 8.61329937
H 9.57660090 4.82805931 2.56616409
H 9.57308609 4.84436101 4.11361852
H 11.30119946 5.09430523 1.08854941
H 10.41823492 6.36366127 1.11835538
H 9.92306073 1.17812396 1.88967064
H 11.26313480 1.16941781 1.11910003
H 13.82856131 1.18772170 4.13656520
H 15.17174870 1.18716939 3.36719039
H 13.81129254 1.15788028 7.02344793
H 14.24857219 14.49597754 7.79723244
H 15.18703700 5.07894371 7.79276306
H 13.83873852 5.08086787 7.03580453
H 8.16788046 1.42445896 7.85944727
H 9.51360641 1.40349389 8.62476127
H 1.73984846 1.44098115 13.12471300
H 0.41057995 1.45753609 12.33396925
H 5.63301976 4.84135086 9.27151688
H 4.28905571 4.85563621 10.03644024
H 6.02946091 5.03998816 13.08744756
H 6.01747386 5.06787866 11.54052735
H 4.28742078 4.79612577 14.55231457
H 5.15505263 3.51429352 14.54701509
H 2.14672073 1.15591295 15.36324487
H 2.57474539 14.48910395 14.58792602
H 2.61252955 6.40309416 14.52832104
H 2.16539782 5.14128744 13.75314176
H 5.66157020 1.47668200 10.86872122
H 5.20827821 2.74764782 10.10696858
H 5.61930134 1.41371471 13.73714757
H 4.28034886 1.40949406 14.51749284
H 1.80378104 4.86242973 16.02477995
H 1.79496599 4.85642181 17.57387269
H 1.78426349 4.81160468 11.50255732
H 1.34706434 3.55291110 12.29060905
H 2.15287181 5.12782801 9.25501681
H 2.59259848 6.39180882 10.03374104
H 3.51977903 1.20868392 10.09979890
H 2.18320745 1.19215549 10.87452305
H 7.41782406 1.13973910 12.30721189
H 6.52505568 14.47763052 12.29961387
H 7.37975288 1.18215444 16.76844105
H 6.04271043 1.17557808 15.98702927
H 6.04379781 5.04686435 16.01282246
H 7.37528867 5.05214809 16.79796441
H 1.33745279 2.74578345 16.83082280
H 1.77229578 1.48235157 17.60932950
H 9.14792507 9.97737281 12.26062939
H 8.26599685 8.72751666 12.27072524
H 12.99613794 10.82367514 10.09272570
H 13.43819426 12.09375070 10.85810361
H 15.19321334 12.41299054 12.30075641
H 13.87192476 12.43270988 13.09984790
H 13.06407112 10.90400693 14.56835597
H 13.48187035 12.15120330 15.37794148
H 11.33907929 12.46120148 14.55141019
H 10.43105634 13.70987190 14.54804522
H 12.07763361 8.72103075 10.02926673
H 13.42396127 8.72360956 9.26907696
H 12.04571282 8.89392006 14.38130114
H 13.39991567 8.74211563 13.67387245
H 8.19399435 12.10951327 16.75072684
H 9.53416086 12.12218393 15.98388052
H 8.20905702 12.13003213 12.33028127
H 9.54844003 12.15228199 13.10051271
H 11.28900597 12.36633769 10.08036181
H 9.95591954 12.38363137 10.86208030
H 9.94739256 8.47007616 10.79006583
H 9.94406998 8.47223846 9.24268145
H 13.79114009 8.44730814 11.49654146
H 14.24091406 7.19517466 12.29396672
H 13.78918756 8.42536999 15.98913117
H 14.23793908 7.17442909 16.77149647
H 14.26220696 13.69515527 16.83864868
H 13.79644551 12.44394781 17.62369214
H 9.09557601 9.92252648 16.79496593
H 9.52574875 8.70147493 17.61497624
H 0.40280755 8.74124674 12.34234740
H 1.74667856 8.74961242 13.11229025
H 5.67827166 12.08594246 9.25550818
H 5.23996636 10.82438787 10.03857128
H 6.03031019 12.38118308 13.07461465
H 6.04581222 12.37136921 11.52689042
H 5.64251679 12.14597049 15.34069903
H 4.30104322 12.14302325 14.57483933
H 3.52359589 8.50720390 14.57392949
H 2.18880112 8.49935537 15.35565579
H 2.12928852 12.37448308 15.32695288
H 2.14351254 12.39042599 13.78066241
H 4.32061292 8.72546052 10.10590161
H 5.66189052 8.71540316 10.87938497
H 5.66585977 8.76819734 15.35563224
H 5.22000566 10.02737166 14.57648368
H 1.28995050 10.83575289 16.80527195
H 0.39876519 12.10095680 16.81116068
H 1.79887638 12.10989286 11.50735236
H 1.33510202 10.84811452 12.27377910
H 3.54941861 12.41771822 10.05289611
H 2.66394664 13.68736489 10.07278206
H 2.13862619 8.48977994 10.84255917
H 2.14544670 8.50884784 9.29817971
H 6.48934597 7.17496447 12.34792587
H 6.05755256 8.44259592 13.11512884
H 7.42184423 8.42885966 16.80459441
H 6.49640172 7.18973406 16.79427581
H 6.47532682 13.67491990 16.81369635
H 6.03627507 12.41307056 17.58708669
H 1.75196195 8.72870099 17.61646114
H 0.41709382 8.72006975 16.83346294
