  384

 O    9.0724955656    1.6959448465   12.3044147225
 O   12.9580682027    4.5082115094   10.0434934317
 O   14.2580909172    5.3850585434   12.2993785770
 O   12.9348251154    4.4711960963   14.5141533638
 O   10.3811072347    0.7597590314   14.5291150980
 O   10.3480784345    5.3671091716   14.4115492502
 O   12.9883245027    1.7624634875   10.0628609165
 O   12.9461289489    1.7164678848   14.5415051044
 O    9.0450872870    4.4716410989   16.6017464917
 O    9.0154237273    4.4293726002   12.2325300060
 O   10.3568443378    5.3959046733   10.0593567564
 O   10.4023556993    0.8270744874   10.0830700184
 O   14.2752449609    0.8433116897   12.3060584173
 O   14.2684269227    0.8911524876   16.8017360547
 O   14.2323586467    5.4457042107   16.7582570732
 O    9.1092734714    1.7377766820   16.7517924646
 O    9.0925066996    9.1521578419    3.5139449759
 O   13.0533466408   11.9487260868    1.1217442894
 O   14.3022388132   12.8081624497    3.3904904656
 O   12.9453794761   11.8144126867    5.5645493824
 O   10.3838679794    8.1662914147    5.7151844407
 O   10.3608508096   12.7533760142    5.5868443762
 O   13.2735300415    9.2476139703    1.3150673861
 O   12.9786847874    9.0584667888    5.6221216554
 O    9.1069998848   11.8220872391    7.8425279492
 O    9.0545702862   11.8497776674    3.3502789187
 O   10.3939729674   12.6775388936    1.1130311823
 O   10.9957859699    7.4531777735   -0.3378580815
 O   14.3865147633    8.1459557442    3.4755402873
 O   14.2733956248    8.1821134010    7.8612699265
 O   14.2547724780   12.7206449681    7.7982116200
 O    9.0908580319    9.0880916293    7.9145377787
 O    1.3904973087    9.1134041826    3.3939606543
 O    5.2059572958   11.7778817441    1.1119973339
 O    6.4676201904   12.7579988160    3.3521413686
 O    5.2252213809   11.8238795547    5.6079539964
 O    2.6356895218    8.1704024342    5.6406939613
 O    2.6357082700   12.7401005569    5.5904017332
 O    5.2051097515    9.0316810544    1.1105817835
 O    5.2137535571    9.0835720478    5.6306112765
 O    1.3202256509   11.8406074346    7.8240283041
 O    1.3440702280   11.8496112431    3.3456920718
 O    2.6259356241   12.7175162835    1.0850134790
 O    2.6037840807    8.1738289309    1.1231330158
 O    6.4825019143    8.2007535389    3.3831189943
 O    6.5109913578    8.1498304527    7.8472605479
 O    6.5158625119   12.7274323698    7.8542978248
 O    1.3171514039    9.0976010463    7.8594274356
 O    1.3529996171    1.7706337971    3.3475997451
 O    5.1635466834    4.5162531349    1.1068506410
 O    6.4197288338    5.4668876195    3.3676702422
 O    5.1433979052    4.5368089310    5.5965686502
 O    2.6296173337    0.8747128253    5.6037488071
 O    2.5452652082    5.4303026129    5.5699710790
 O    5.2174464449    1.7772927538    1.0936659430
 O    5.2107236873    1.7910600571    5.5991275543
 O    1.2756439828    4.5159801096    7.8172855316
 O    1.2595966617    4.5105943233    3.3206307704
 O    2.5807220890    5.4313968081    1.0904222258
 O    2.6328976312    0.8529572770    1.0952235720
 O    6.5061073161    0.9052582022    3.3472109511
 O    6.4878701750    0.8672277086    7.8496726173
 O    6.4828660663    5.4100303807    7.8377745904
 O    1.3195467863    1.7759784918    7.8372002284
 O    9.1013961382    1.8322232312    3.2954226564
 O   12.8196744557    4.6162416637    1.0057150513
 O   14.1798087967    5.4285245975    3.2851705028
 O   12.9343262188    4.5445009085    5.5699590483
 O   10.3730971108    0.9035269240    5.5583789050
 O   10.3458724711    5.4393448691    5.6103863455
 O   12.9661457275    1.8442642218    1.0952809512
 O   12.9625835739    1.8086627721    5.6003834301
 O    9.0633163692    4.4787270197    7.8307286185
 O    9.0354578937    4.5943027334    3.3279139901
 O   10.1995284539    5.3072954140    0.9365843079
 O   10.3936176818    0.8372596526    1.0676739722
 O   14.2750495675    0.9484751772    3.3550196634
 O   14.2719304724    0.8562910317    7.8129961939
 O   14.2370487377    5.4485380037    7.8071017949
 O    9.0917352625    1.7428023926    7.8434398449
 O    1.3143811328    1.7932119095   12.3418510721
 O    5.1926426120    4.4703025449   10.0644029897
 O    6.4487672198    5.3810070775   12.3293003023
 O    5.1399380010    4.4607998962   14.5663727058
 O    2.6218298864    0.8630525890   14.5704870977
 O    2.5759915096    5.4288968334   14.5587284445
 O    5.1748437969    1.7332220605   10.0950452367
 O    5.2160083774    1.7198267271   14.5685142924
 O    1.2795001169    4.5367864477   16.7948121285
 O    1.3240273792    4.5321466474   12.3036166472
 O    2.6087379782    5.4078282404   10.0399607578
 O    2.5777823463    0.8627557562   10.0932640432
 O    6.4865988488    0.8050353612   12.3182295307
 O    6.5259523631    0.8008900086   16.8161857851
 O    6.4598151250    5.3446555141   16.7747679922
 O    1.3245953682    1.7908060392   16.8101704111
 O    9.0280287189    9.0642638476   12.2256586144
 O   13.0028813994   11.7813282602   10.0579718453
 O   14.2953972101   12.6990263758   12.3052952683
 O   12.9925866522   11.7658014769   14.5383602290
 O   10.3860133676    8.0968761990   14.3700265821
 O   10.3870130047   12.6073611542   14.6076302267
 O   13.0017981122    9.0483029445   10.1187514446
 O   12.9763867863    9.0210903877   14.5741525978
 O    9.1150882007   11.5577479713   16.8530900421
 O    9.0942283153   11.7945047412   12.3210006777
 O   10.4188780883   12.6946292556   10.0888495666
 O   10.4239555696    8.1351672874   10.0933913555
 O   14.2871718315    8.1261097299   12.3473671535
 O   14.2805168422    8.1876291885   16.8496819636
 O   14.2739572380   12.7621956929   16.7606382261
 O    8.9753269271    8.7749880649   16.6087472325
 O    1.3258046095    9.0663073557   12.3010027824
 O    5.1990847765   11.8077854748   10.0762402018
 O    6.4985027457   12.6700969614   12.3301912146
 O    5.2292072319   11.7977019239   14.5912353486
 O    2.6061898971    8.1736622565   14.5534399373
 O    2.6378470458   12.7235280005   14.5689113537
 O    5.1887457373    9.0675680096   10.0633448617
 O    5.1918267093    9.0653323918   14.5438155009
 O    1.3166360462   11.8192432625   16.7931233007
 O    1.3595097637   11.8021653573   12.3220113989
 O    2.6182541953   12.7280515140   10.0678519611
 O    2.6169371802    8.1484051906   10.0744558295
 O    6.4589551857    8.1314261233   12.3052583875
 O    6.3932159118    8.0706216824   16.7907125893
 O    6.5476838406   12.6463071051   16.8275706525
 O    1.3334322823    9.0823911163   16.8069540623
 H    9.5556779909    1.3822399308   11.5321258565
 H    9.5435706865    1.3634455180   13.0760351829
 H   12.0501996329    4.8289149633   10.0305954321
 H   13.3867391913    4.8544584605    9.2540533028
 H   13.7857210318    5.0409602994   13.0666770256
 H   13.7863264988    5.0711823964   11.5211258922
 H   12.0157204446    4.7604919850   14.4913339206
 H   12.9202735024    3.5095652968   14.5374569864
 H   11.2967290340    1.0590345633   14.5399303732
 H   10.3985690981   14.4009010053   14.5711706346
 H    9.8783124199    5.0583314529   13.6305867954
 H   10.3606279431    6.3296857603   14.3732065054
 H   13.4399838762    1.4638668719    9.2666457166
 H   12.9849952694    2.7251866047   10.0349983846
 H   13.4304809054    1.4028384770   13.7708617564
 H   13.4312626266    1.4225150227   15.3189633618
 H    9.4672740630    4.8379320696   15.8181544485
 H    8.1450159984    4.8049356845   16.6388528154
 H    8.1017155531    4.7297751170   12.2713678894
 H    9.0043600367    3.4669411037   12.2657575178
 H    9.8793035397    5.0465078764   10.8202554856
 H    9.8927774281    5.0714363113    9.2802226163
 H   11.3130121072    1.1399445132   10.0750456238
 H   10.4390113889   14.4666548432   10.0842288895
 H   15.1716302805    1.1950768995   12.3018826981
 H   13.8426856334    1.1785834678   11.5136188955
 H   15.1730234813    1.2215351166   16.8213290732
 H   13.8308941025    1.2339798068   17.5881464147
 H   13.7583729844    5.1493747329   15.9756107788
 H   14.2033931632    6.4072515837   16.7606393701
 H    9.5532378738    1.4070180906   15.9641934092
 H    9.1088746735    2.7003461666   16.6834853633
 H    9.0832879812   10.1202005110    3.4450442454
 H    9.6255840756    8.8328382954    2.8042512753
 H   13.4823745054   12.2341377262    0.3060667160
 H   13.1729642482   10.9974282108    1.1657503715
 H   13.8431028231   12.5210590000    2.5942965480
 H   13.8095405390   12.4584496395    4.1394617355
 H   12.9305803385   10.8528122147    5.5790226251
 H   12.0306862339   12.1146364641    5.5736900297
 H    9.9047647307    8.5245815803    4.9666300308
 H    9.9228610791    8.4897621026    6.5002513311
 H   10.3641495348   13.7169765555    5.5658885578
 H    9.8941292698   12.4662560828    4.7965267619
 H   13.7390475201    8.8696356195    2.0761197332
 H   12.3712614942    8.9911002674    1.4143693692
 H   13.4129597081    8.7583165047    6.4299777547
 H   12.0758177336    8.7277999580    5.6606159199
 H    9.5303738636   12.1578047896    7.0456654533
 H    8.2031104071   12.1554104093    7.8369116105
 H    8.1535055833   12.1953060697    3.3206096404
 H    9.5057745707   12.1644075625    2.5570482426
 H   10.3989091725   13.6412065206    1.0735569293
 H   11.3186555764   12.4118984725    1.1142121591
 H   10.1030802399    7.6936554444   -0.5876632416
 H   10.9618491104    7.4512605207    0.6018505312
 H   13.8927560627    8.4361621080    4.2516854712
 H   14.3137017373    7.1837577812    3.4308711713
 H   15.1786560299    8.5124701402    7.8772655190
 H   13.8496971556    8.4935169450    8.6694962999
 H   13.7768844241   12.3939535282    7.0294720672
 H   13.8016028649   12.3779413560    8.5759551413
 H    9.1066307158   10.0515953904    7.9215718119
 H    9.5620979080    8.7873790232    8.7008310025
 H    1.8506335181    8.7965554470    4.1789842961
 H    0.5018319182    8.7486846360    3.4503538686
 H    5.2248405317   10.8154068891    1.1333416472
 H    5.6494657618   12.0903548346    1.9066400129
 H    6.0249514688   12.4560992654    4.1528983536
 H    6.4531731113   13.7214652419    3.3687128427
 H    5.2324802960   10.8612137524    5.6330586833
 H    5.6767665815   12.1239594067    6.4044503627
 H    2.1647294422    8.4716391215    6.4253079207
 H    2.5877783663    7.2081017016    5.6349972847
 H    2.2083203966   12.4204007741    4.7887298402
 H    3.5376289325   12.4035929443    5.5809849155
 H    4.2952151396    8.7161992921    1.1392166835
 H    5.6370499716    8.7164490091    1.9096668665
 H    5.6565280007    8.7436027270    6.4164596608
 H    4.3090108330    8.7522795429    5.6601813420
 H    1.7610676425   12.1647992375    7.0317008687
 H    0.4121806511   12.1593178553    7.7910164354
 H    1.3166610523   10.8871422892    3.3619382587
 H    0.4330346861   12.1605362252    3.3652309527
 H    3.5256722310   12.3753792955    1.1053422728
 H    2.1910375103   12.4012652040    1.8836466265
 H    2.1506808684    8.5157516428    1.9004505074
 H    2.1430634729    8.5153984552    0.3491562471
 H    7.3819769955    8.5254784775    3.4115509853
 H    6.0482460502    8.5230673894    4.1819657107
 H    6.5307273802    7.1861978369    7.8505799884
 H    7.4246744301    8.4509231335    7.8781613919
 H    6.0506226834   12.4285704463    8.6434883783
 H    6.4923044829   13.6905967561    7.8694117543
 H    1.7807648575    8.7979514198    8.6491653229
 H    1.3344929528   10.0606141485    7.8682202263
 H    1.8196242004    1.4301975065    2.5771021909
 H    1.8211391627    1.4488076606    4.1251820457
 H    5.5885893149    4.8622522643    1.8975092433
 H    4.2608212671    4.8516924401    1.1081083223
 H    7.3328588977    5.1587991275    3.3602129036
 H    6.4562563061    6.4280680958    3.3674996540
 H    5.6054920947    4.8826102458    4.8247945396
 H    5.6195990187    4.8578068114    6.3694191649
 H    2.6523707927   14.5140025126    5.6044839070
 H    3.5453728308    1.1733843137    5.6028846028
 H    3.4486634432    5.0963687597    5.5578044008
 H    2.1129629235    5.1019219849    4.7740172102
 H    5.1751353986    2.7396601532    1.0963515419
 H    4.3071240047    1.4631826718    1.0915377945
 H    5.2005964010    2.7540013415    5.5787511854
 H    5.6731916101    1.5048594719    4.8041431895
 H    1.6994175406    4.8476997138    7.0186079978
 H    0.3712106366    4.8476936594    7.8059060352
 H    1.7223183321    4.8165543228    2.5333344592
 H    1.3065767431    3.5487171564    3.3090816586
 H    2.5702816285    6.3939099101    1.0826919986
 H    2.1201987366    5.1430111727    0.2943338918
 H    2.1708154932    1.1615664115    0.3086932030
 H    2.6226499924   14.4926420788    1.0658968038
 H    6.0653464952    1.2266479709    2.5524624089
 H    7.4113247985    1.2328968007    3.3117819462
 H    6.0077811803    1.1891044064    8.6203643167
 H    6.0296621431    1.2055048094    7.0732225949
 H    7.3804081255    5.0607351178    7.8478922601
 H    6.0481191148    5.0709669187    8.6280446772
 H    1.7864376347    1.4796561258    7.0484975169
 H    1.3087507679    2.7386629793    7.8079871140
 H    9.5647135541    1.5133684818    4.0756726816
 H    9.5689523136    1.4806398961    2.5305769943
 H   13.2566136911    4.9549364340    1.7880565271
 H   13.3148732639    4.9358357166    0.2458738504
 H   15.0712699689    5.0654914988    3.2866103912
 H   13.7453899109    5.0883956722    4.0744049708
 H   12.0165141876    4.8349390028    5.5801396921
 H   12.9200478083    3.5812739740    5.5916735239
 H    9.9354581772    1.2122852376    6.3583399537
 H   11.2776020236    1.2327010059    5.5920011150
 H    9.8816402663    5.1741949008    4.8088613820
 H   10.3436859010    6.4012630618    5.6355980841
 H   13.4262404733    1.5717873044    1.8947679558
 H   12.9225665167    2.8064425884    1.1020119662
 H   13.4378825644    1.5005002009    4.8207882308
 H   13.4368548212    1.4662397652    6.3656436372
 H    9.5171016653    4.7882340708    7.0402667924
 H    9.0921127051    3.5160668623    7.8135281698
 H    9.4481739490    4.9062222706    2.5111884796
 H    9.0801564690    3.6330284548    3.2769916210
 H   11.1458354966    5.1961122750    0.8376137110
 H    9.8571619628    5.1323998277    0.0537466809
 H   11.2872971029    1.1952122721    1.0611002504
 H    9.9629681735    1.1744134161    0.2738304989
 H   15.1963341452    1.2292612132    3.3499608095
 H   14.2892384370   14.5883867462    3.3658154539
 H   14.2839755719   14.4955461861    7.8127610656
 H   15.1895743179    1.1484181169    7.8202466893
 H   14.2420955741    6.4115010851    7.8024272344
 H   13.7775741362    5.1624079234    7.0104131866
 H    9.5309255661    1.4068022839    8.6316947968
 H    8.1835669243    1.4237959480    7.8699032958
 H    1.3333621957    2.7560495371   12.3585576858
 H    1.7776220211    1.4890989896   13.1295888583
 H    5.1991761801    3.5074326462   10.0964335189
 H    5.6277807287    4.7753710338   10.8678698677
 H    5.9876923636    5.0898523510   13.1227821387
 H    6.4484125525    6.3438455639   12.3429955407
 H    5.1296630624    3.4981372560   14.5628225614
 H    4.2252332601    4.7615770294   14.5672414375
 H    3.5441102769    1.1416828353   14.5716787791
 H    2.6301266581   14.5019428838   14.5699483360
 H    2.5896862559    6.3917912000   14.5406503780
 H    2.1305641865    5.1444381664   13.7532403556
 H    5.6137168173    1.3895615024   10.8807917550
 H    4.2655801762    1.4161591342   10.1194385220
 H    5.6905003036    1.3926809281   15.3398636083
 H    5.6831249438    1.3910731397   13.7929400679
 H    0.3703246770    4.8569990450   16.7680084452
 H    1.7100206453    4.8668690053   15.9986074217
 H    0.4127098439    4.8440387576   12.2764713882
 H    1.7559751011    4.8492141831   11.5037975582
 H    3.5053095559    5.0568721144   10.0254505233
 H    2.1646102397    5.0821849700    9.2499961543
 H    2.1211937754    1.2030984081    9.3164129307
 H    2.1108658715    1.1996462423   10.8654741541
 H    6.5096945391   14.4440892178   12.3230522743
 H    7.4038427306    1.1003692834   12.3073147079
 H    7.4270330278    1.1426296216   16.8220596699
 H    6.0886140127    1.1571234527   17.5961049874
 H    6.0158009538    5.0182102671   17.5630813744
 H    5.9709858323    5.0080591438   16.0160772771
 H    1.3231365863    2.7539082591   16.7848987992
 H    1.7800071636    1.4911062574   16.0164966940
 H    8.1124061087    8.7664698520   12.2568700856
 H    9.0197191184   10.0266176701   12.2579435762
 H   13.4616418555   12.0930496390   10.8456049450
 H   13.0137709056   10.8186614659   10.0987598672
 H   14.3081461214   13.6621628372   12.3077424888
 H   15.2141299751   12.4104329429   12.3101935554
 H   13.4448252331   12.0646456928   13.7426958016
 H   13.0066099502   10.8022858861   14.5275770997
 H    9.8614104938    8.3626285116   15.1318705466
 H    9.9257879213    8.4446361190   13.5997245588
 H    9.9676739038   12.2337619744   15.3880859926
 H   11.2971868046   12.2920245182   14.6028798470
 H   13.4330157824    8.7148625192   10.9139676024
 H   12.0978528068    8.7147924162   10.1357437849
 H   12.0736179681    8.6853990565   14.5546518331
 H   13.3731600466    8.7128840338   15.3948962677
 H    9.5505081505   11.9288657804   17.6238453862
 H    8.2254622400   11.9220013599   16.8520234012
 H    9.5656716348   12.0894189366   13.1071731459
 H    9.5769380219   12.1286065668   11.5581203225
 H    9.9773161680   12.3835523178    9.2921588658
 H   11.3194926603   12.3540799650   10.0611474171
 H    9.9274905300    8.4355025238   10.8639571647
 H   10.3902445360    7.1720106087   10.0986475754
 H   14.2674637874    7.1628601623   12.3546600104
 H   13.8355665931    8.4169180699   13.1482249650
 H   15.1894913073    8.5032157964   16.8334571879
 H   13.8921179151    8.5198786023   17.6576392097
 H   13.8188755200   12.4409638713   15.9748091439
 H   14.2542689375   13.7254372483   16.7319805681
 H    9.0697283462    9.7109642095   16.7857364124
 H    8.0440999938    8.5521608823   16.6894349347
 H    1.7597916024    8.7216206029   11.5132138253
 H    0.4239213374    8.7276557698   12.2957497914
 H    5.6301386028   12.1167920383   10.8804790104
 H    4.2970150695   12.1455829094   10.0922512155
 H    6.0773003339   12.3495069327   13.1351578366
 H    7.4070839344   12.3509884899   12.3430122799
 H    4.3275714264   12.1347149873   14.6107870234
 H    5.6684619429   12.1190947012   15.3866553804
 H    2.1721700029    8.4970547055   13.7567611667
 H    3.5120880855    8.5005904395   14.5278370758
 H    2.1827538190   12.3852667095   13.7904627091
 H    2.1568604783   12.3961948465   15.3361138194
 H    5.2014343472   10.0305088416   10.0459680207
 H    5.6593162899    8.7665847179    9.2791738468
 H    5.6196081383    8.7371466069   15.3422183047
 H    5.2204836862   10.0272392668   14.5861525821
 H    0.4181781205   12.1652795828   16.8025620464
 H    1.7539360749   12.1449403870   17.5867309037
 H    1.3582858229   10.8391801106   12.2934190738
 H    1.8056053232   12.1031200144   11.5235010319
 H    2.5902005931   13.6910977792   10.0623183446
 H    2.1549517604   12.4365978447    9.2755499038
 H    2.6397350321    7.1854793460   10.0587796354
 H    3.5324277226    8.4488960055   10.0718810972
 H    5.9881891730    8.4625033753   11.5336063194
 H    6.0005778109    8.4734564880   13.0806517766
 H    5.9806899461    8.3785027750   17.6036393812
 H    6.3865051674    7.1067012252   16.8118629743
 H    6.0757432770   12.3593329209   17.6159775566
 H    6.5490269617   13.6091963114   16.8455093341
 H    1.3356727632   10.0448811570   16.7765266555
 H    1.7859228602    8.7795648562   16.0119599378
