  384

 O    9.0733032735    1.6967487200   12.3038578476
 O   12.9586626718    4.5089000445   10.0436255695
 O   14.2580718458    5.3853643941   12.2983878831
 O   12.9348957751    4.4706494862   14.5160108882
 O   10.3813557905    0.7596616143   14.5310570722
 O   10.3426084981    5.3662534937   14.4144405534
 O   12.9886061703    1.7623589445   10.0628465386
 O   12.9465650645    1.7176436286   14.5410688124
 O    9.0496300813    4.4822588207   16.6075955015
 O    9.0161866377    4.4294468967   12.2366072018
 O   10.3568563064    5.3955671448   10.0590496228
 O   10.4022954586    0.8268687067   10.0844435656
 O   14.2746869128    0.8442889182   12.3065059634
 O   14.2683874950    0.8921669611   16.8004270945
 O   14.2285884379    5.4453771351   16.7620728448
 O    9.1101896992    1.7361946592   16.7498903080
 O    9.0860361083    9.1455675978    3.5161834784
 O   13.0538305609   11.9472696437    1.1234924686
 O   14.3011587837   12.8091572492    3.3907669484
 O   12.9459409140   11.8144460832    5.5660668920
 O   10.3838264755    8.1641787575    5.7133546431
 O   10.3602067602   12.7521047729    5.5876820210
 O   13.2711129196    9.2420543878    1.3106140213
 O   12.9781625961    9.0608443154    5.6214621572
 O    9.1081353594   11.8235902023    7.8432624554
 O    9.0567354913   11.8592649433    3.3560119694
 O   10.3931301308   12.6759739086    1.1076514405
 O   10.9400928206    7.3591663210   -0.3272360368
 O   14.3958826716    8.1462655267    3.4800654842
 O   14.2742230383    8.1794931936    7.8628415560
 O   14.2543151916   12.7209091550    7.7971702375
 O    9.0872712533    9.0890633516    7.9163545903
 O    1.3908242672    9.1134999390    3.3927668296
 O    5.2060716138   11.7776979231    1.1115652589
 O    6.4628719393   12.7580552685    3.3505208913
 O    5.2241461757   11.8237857270    5.6081915378
 O    2.6358951210    8.1703390015    5.6409585514
 O    2.6355482561   12.7403762225    5.5900912836
 O    5.2066903601    9.0299301796    1.1092293208
 O    5.2131940405    9.0849450867    5.6312854738
 O    1.3200945897   11.8412753223    7.8243690767
 O    1.3436900247   11.8492541311    3.3452321361
 O    2.6258304073   12.7175140416    1.0852232107
 O    2.6029037269    8.1729687592    1.1240082710
 O    6.4843386746    8.1998484923    3.3808335890
 O    6.5106296585    8.1501109226    7.8490151561
 O    6.5158453149   12.7273893372    7.8542325244
 O    1.3171257253    9.0979419380    7.8592511147
 O    1.3529273879    1.7702391358    3.3476850256
 O    5.1646597184    4.5179721164    1.1056528699
 O    6.4164029511    5.4699698164    3.3667202564
 O    5.1438935461    4.5363926196    5.5966024846
 O    2.6291984001    0.8743482723    5.6036744920
 O    2.5450711325    5.4294197600    5.5706948069
 O    5.2173552546    1.7776366933    1.0929165782
 O    5.2103861123    1.7910523276    5.5995609128
 O    1.2754686663    4.5160473284    7.8177581273
 O    1.2598119966    4.5104831632    3.3206829820
 O    2.5822782798    5.4319171098    1.0899303141
 O    2.6340019302    0.8523808804    1.0950806684
 O    6.5057481279    0.9067123806    3.3479682665
 O    6.4881543787    0.8676949925    7.8494653748
 O    6.4827766426    5.4093311421    7.8370893060
 O    1.3197470444    1.7759533870    7.8373579651
 O    9.1045164932    1.8364259425    3.2950382820
 O   12.8047848369    4.6275688013    1.0036701763
 O   14.1758377448    5.4208331646    3.2784115307
 O   12.9347886481    4.5449263267    5.5699738582
 O   10.3719031053    0.9066581308    5.5564714449
 O   10.3468123150    5.4422992215    5.6151061331
 O   12.9674644505    1.8435353261    1.0967360687
 O   12.9625939255    1.8080035022    5.6004389829
 O    9.0636340058    4.4791762565    7.8315369735
 O    9.0309182608    4.5891344694    3.3336039530
 O   10.2137322272    5.3422202351    0.8871810624
 O   10.3931768307    0.8407348928    1.0700461421
 O   14.2743723230    0.9477173848    3.3528507407
 O   14.2716914882    0.8559105354    7.8135633871
 O   14.2367212885    5.4482516409    7.8075828614
 O    9.0916069167    1.7429435369    7.8436316599
 O    1.3139608116    1.7931377256   12.3422320433
 O    5.1924221381    4.4701456158   10.0645271542
 O    6.4504992505    5.3812836266   12.3300249300
 O    5.1403766534    4.4611632977   14.5680226436
 O    2.6217968542    0.8627907169   14.5707963932
 O    2.5760573746    5.4290236145   14.5587259430
 O    5.1745768191    1.7335626249   10.0952157368
 O    5.2164688832    1.7208521379   14.5680850147
 O    1.2797234201    4.5366099008   16.7939516705
 O    1.3247444816    4.5322375382   12.3034738229
 O    2.6082729038    5.4073963328   10.0400903570
 O    2.5780050419    0.8630988076   10.0929116988
 O    6.4866338978    0.8049293990   12.3190742286
 O    6.5243673970    0.8012842689   16.8160605132
 O    6.4648846624    5.3391947971   16.7747298454
 O    1.3239840477    1.7907104601   16.8097677243
 O    9.0282890270    9.0641314224   12.2289680127
 O   13.0021303359   11.7815070019   10.0581328056
 O   14.2958283849   12.6991060396   12.3061497921
 O   12.9918698368   11.7665935744   14.5371293006
 O   10.3846860502    8.0959938757   14.3689355548
 O   10.3868680284   12.6082288461   14.6083607643
 O   13.0014424719    9.0494934123   10.1192091488
 O   12.9774999679    9.0213913882   14.5749294283
 O    9.1156607801   11.5533639660   16.8523061069
 O    9.0947583597   11.7939067539   12.3206004746
 O   10.4182217833   12.6945229265   10.0889160861
 O   10.4253394253    8.1349060826   10.0943751121
 O   14.2877783890    8.1259641394   12.3473854300
 O   14.2774975125    8.1882353159   16.8535308531
 O   14.2758174772   12.7618585498   16.7590432343
 O    8.9870456305    8.7660917427   16.6214803610
 O    1.3262264724    9.0660488234   12.3010391391
 O    5.1984830530   11.8073156742   10.0764717527
 O    6.4989326589   12.6709201784   12.3305974271
 O    5.2291279556   11.7973260947   14.5913299234
 O    2.6062288052    8.1731240267   14.5528603903
 O    2.6379407599   12.7236277707   14.5689463251
 O    5.1896036149    9.0670810536   10.0638367148
 O    5.1922014392    9.0656310298   14.5444623703
 O    1.3170978364   11.8190629645   16.7929505308
 O    1.3598320455   11.8022343542   12.3217300847
 O    2.6176530772   12.7278855917   10.0677443112
 O    2.6172499727    8.1485377723   10.0755523401
 O    6.4589885882    8.1314527648   12.3048976432
 O    6.3997023912    8.0719816339   16.7924097283
 O    6.5471358799   12.6454026418   16.8276131336
 O    1.3309890720    9.0819488285   16.8059626767
 H    9.5559623522    1.3823856641   11.5314666600
 H    9.5437886131    1.3632511756   13.0753012178
 H   12.0506156715    4.8290014066   10.0301941196
 H   13.3871234580    4.8544710109    9.2537336861
 H   13.7862621035    5.0404814165   13.0655918539
 H   13.7866186546    5.0713311019   11.5199116150
 H   12.0156423144    4.7589899212   14.4908671940
 H   12.9211434893    3.5088646361   14.5372979114
 H   11.2971162495    1.0585121813   14.5402192879
 H   10.3982874256   14.4007668839   14.5720519951
 H    9.8761214845    5.0558978343   13.6321865689
 H   10.3579902281    6.3286000206   14.3723263364
 H   13.4399616724    1.4632896227    9.2666325756
 H   12.9852594597    2.7250456650   10.0344668298
 H   13.4302794772    1.4035986664   13.7702194375
 H   13.4315241520    1.4228941631   15.3183503274
 H    9.4665165599    4.8389911937   15.8170215082
 H    8.1460487280    4.8057680600   16.6437780149
 H    8.1023763179    4.7300657700   12.2721944859
 H    9.0048652437    3.4669102034   12.2660779456
 H    9.8794235641    5.0464233392   10.8200442107
 H    9.8927271875    5.0712755410    9.2798002714
 H   11.3129551545    1.1396334387   10.0750517957
 H   10.4387078689   14.4664355367   10.0842541374
 H   15.1714043195    1.1952321252   12.3020134233
 H   13.8426098841    1.1787584469   11.5134624193
 H   15.1734609880    1.2214463799   16.8206892972
 H   13.8317655617    1.2331201612   17.5881067684
 H   13.7595001014    5.1496890272   15.9761466346
 H   14.2049524727    6.4068753570   16.7630760147
 H    9.5543359153    1.4049119393   15.9624222855
 H    9.1100339689    2.6984761161   16.6815083230
 H    9.0826027300   10.1120101354    3.4497446683
 H    9.6400247180    8.8268046123    2.8196029719
 H   13.4832521475   12.2315175765    0.3074872651
 H   13.1704101620   10.9960309404    1.1672687493
 H   13.8432002081   12.5198873426    2.5948414505
 H   13.8095342715   12.4581757686    4.1397595083
 H   12.9310578845   10.8528198750    5.5776071249
 H   12.0310532793   12.1140918051    5.5730918034
 H    9.9076572679    8.5213071938    4.9622934576
 H    9.9209938508    8.4896952957    6.4963429118
 H   10.3633117567   13.7155211516    5.5654909651
 H    9.8942338897   12.4645678511    4.7966430213
 H   13.7492405336    8.8732630342    2.0668582394
 H   12.3673582809    9.0098219074    1.4570565146
 H   13.4104089500    8.7577639852    6.4294261001
 H   12.0757390386    8.7287445389    5.6552171074
 H    9.5309926222   12.1571800600    7.0451617922
 H    8.2037540299   12.1554616336    7.8365138477
 H    8.1537440746   12.1990446036    3.3204022582
 H    9.5060415872   12.1631047022    2.5578472989
 H   10.4004100509   13.6398701463    1.0728221945
 H   11.3167691040   12.4078224419    1.1143025832
 H   10.0622553586    7.6482492900   -0.5771274425
 H   10.9823896272    7.5424661486    0.5911218886
 H   13.8918150944    8.4378964820    4.2489290938
 H   14.3118571504    7.1855896144    3.4288794858
 H   15.1788505675    8.5117032154    7.8772784273
 H   13.8502574888    8.4931288215    8.6700525639
 H   13.7766300722   12.3935838557    7.0285163295
 H   13.8012978287   12.3780725145    8.5748759147
 H    9.1057789569   10.0525195855    7.9216539829
 H    9.5615410236    8.7886307085    8.7008636853
 H    1.8509405756    8.7972783858    4.1779958267
 H    0.5020235281    8.7488101766    3.4505915543
 H    5.2257738342   10.8153280999    1.1329624769
 H    5.6491400120   12.0904693519    1.9064344047
 H    6.0234238329   12.4552478350    4.1527291573
 H    6.4506730115   13.7214487882    3.3695351380
 H    5.2325756250   10.8610394455    5.6325955167
 H    5.6766789813   12.1236945741    6.4041491324
 H    2.1641700313    8.4716838975    6.4250392787
 H    2.5873460315    7.2080899853    5.6351480528
 H    2.2079938922   12.4200991897    4.7888231910
 H    3.5372941123   12.4032404687    5.5810824855
 H    4.2965745004    8.7156261808    1.1398636702
 H    5.6394882441    8.7169585909    1.9088420508
 H    5.6564893939    8.7443601959    6.4164965286
 H    4.3087435125    8.7527277429    5.6608462234
 H    1.7608659617   12.1647514838    7.0317305158
 H    0.4117934013   12.1591694383    7.7906515108
 H    1.3165374062   10.8867548311    3.3615745261
 H    0.4327562995   12.1600533730    3.3651494432
 H    3.5254371866   12.3749648926    1.1055197993
 H    2.1906009141   12.4009624084    1.8835089177
 H    2.1503439935    8.5151840448    1.9015727688
 H    2.1422067100    8.5148633117    0.3503807983
 H    7.3844729089    8.5236621889    3.4070423643
 H    6.0510129865    8.5233064614    4.1792932171
 H    6.5306830906    7.1865595095    7.8505780982
 H    7.4243255098    8.4515802379    7.8781696040
 H    6.0502536211   12.4285165670    8.6432002152
 H    6.4923427594   13.6905523777    7.8693055980
 H    1.7808728377    8.7985848333    8.6489953224
 H    1.3343783177   10.0609299653    7.8677887834
 H    1.8198326896    1.4295067504    2.5775336144
 H    1.8207586586    1.4484812796    4.1254743637
 H    5.5884499453    4.8636341809    1.8971657865
 H    4.2616592047    4.8524242476    1.1067458147
 H    7.3286911116    5.1603693313    3.3634904041
 H    6.4550536729    6.4312153516    3.3674335329
 H    5.6044648395    4.8840252669    4.8247309269
 H    5.6198922423    4.8579418221    6.3693739528
 H    2.6520083951   14.5136340234    5.6043077575
 H    3.5449391909    1.1730801287    5.6030792970
 H    3.4486678233    5.0960245778    5.5579558832
 H    2.1127537848    5.1017308895    4.7744418249
 H    5.1744225693    2.7400053486    1.0963234721
 H    4.3073159974    1.4627559821    1.0914425697
 H    5.2006007970    2.7540419761    5.5789078791
 H    5.6728483424    1.5046464088    4.8046474327
 H    1.6993748214    4.8474985653    7.0190165059
 H    0.3710274319    4.8477226234    7.8061233379
 H    1.7230618369    4.8167037227    2.5338625116
 H    1.3071465898    3.5486276158    3.3090935857
 H    2.5704602540    6.3944373245    1.0833988542
 H    2.1209764528    5.1437574799    0.2943244926
 H    2.1714418711    1.1610225046    0.3088930597
 H    2.6232830438   14.4920678449    1.0660715335
 H    6.0653085096    1.2270427948    2.5525298930
 H    7.4110570083    1.2336108580    3.3121340366
 H    6.0077585552    1.1894770802    8.6199774180
 H    6.0296761072    1.2054397930    7.0729060259
 H    7.3805990092    5.0607583584    7.8476744017
 H    6.0481450256    5.0707168761    8.6276016228
 H    1.7863456836    1.4794327663    7.0485601017
 H    1.3087318728    2.7386422230    7.8078735319
 H    9.5646386403    1.5159020464    4.0765830728
 H    9.5698119908    1.4790129039    2.5313858962
 H   13.2428130045    4.9587338783    1.7879326043
 H   13.3093710187    4.9375234636    0.2465854005
 H   15.0692844423    5.0629218645    3.2842111260
 H   13.7436098806    5.0879310245    4.0716683807
 H   12.0174907990    4.8367199164    5.5809033441
 H   12.9195156046    3.5817256157    5.5919592066
 H    9.9350326005    1.2130728059    6.3577102452
 H   11.2772170323    1.2334497307    5.5916142615
 H    9.8821127687    5.1761250579    4.8147201401
 H   10.3463277722    6.4044012846    5.6363682124
 H   13.4273742777    1.5697868008    1.8960608949
 H   12.9231061518    2.8053990797    1.1048829728
 H   13.4377796890    1.4996287643    4.8209579693
 H   13.4367490665    1.4657693278    6.3658072638
 H    9.5176413931    4.7901943324    7.0417265024
 H    9.0925801774    3.5165546466    7.8132730085
 H    9.4464699637    4.9206432583    2.5286010879
 H    9.0837719819    3.6277897968    3.2713497959
 H   11.1604480029    5.2194355575    0.8097236928
 H    9.8693784793    5.1332224821    0.0117864400
 H   11.2884161998    1.1948741703    1.0613869748
 H    9.9640285837    1.1734083741    0.2734150331
 H   15.1956740312    1.2284097560    3.3495648026
 H   14.2880589254   14.5876811605    3.3652427262
 H   14.2836505185   14.4951490911    7.8123844325
 H   15.1893119706    1.1480719650    7.8203634716
 H   14.2422952079    6.4112662361    7.8029823267
 H   13.7778245276    5.1624932363    7.0104546316
 H    9.5307263604    1.4066495687    8.6317185586
 H    8.1835024324    1.4236457868    7.8697957948
 H    1.3336320702    2.7559754334   12.3585536629
 H    1.7776193609    1.4889913271   13.1297174653
 H    5.1989771810    3.5072404956   10.0964313892
 H    5.6280747689    4.7750789476   10.8677188786
 H    5.9879224199    5.0903825337   13.1227231272
 H    6.4485686013    6.3441567352   12.3425163820
 H    5.1298262971    3.4984829018   14.5631709602
 H    4.2258589946    4.7621757534   14.5678796666
 H    3.5440162775    1.1416005618   14.5716208469
 H    2.6301697060   14.5016839027   14.5700995174
 H    2.5899290318    6.3919073506   14.5404413209
 H    2.1312445954    5.1444533618   13.7529574909
 H    5.6133677228    1.3894092241   10.8807584562
 H    4.2653798093    1.4162290083   10.1191639847
 H    5.6899425692    1.3925595091   15.3396108854
 H    5.6831274114    1.3911345663   13.7926383338
 H    0.3706689270    4.8568772764   16.7684753461
 H    1.7099152439    4.8672192908   15.9977158134
 H    0.4134478579    4.8439846534   12.2758625173
 H    1.7566761831    4.8489108416   11.5034522228
 H    3.5049671941    5.0568000552   10.0251971083
 H    2.1641236227    5.0821437508    9.2499528128
 H    2.1212826962    1.2032333065    9.3160140921
 H    2.1108188281    1.1996635615   10.8650737804
 H    6.5097648681   14.4439607731   12.3230925810
 H    7.4037961804    1.1003159405   12.3069498247
 H    7.4259223658    1.1415454961   16.8224979158
 H    6.0875405681    1.1569819381   17.5965886885
 H    6.0175046429    5.0178455048   17.5631920389
 H    5.9733148076    5.0066810033   16.0161591170
 H    1.3232807310    2.7538294142   16.7845763527
 H    1.7798294101    1.4908263957   16.0164097735
 H    8.1124462486    8.7667275472   12.2572649120
 H    9.0202959437   10.0265656449   12.2583727516
 H   13.4614419521   12.0927760513   10.8455634894
 H   13.0133476404   10.8187672472   10.0982963805
 H   14.3084235404   13.6622341269   12.3077499284
 H   15.2145957417   12.4105635531   12.3101157902
 H   13.4449829588   12.0653012902   13.7417963587
 H   13.0070585911   10.8031826607   14.5269204675
 H    9.8604066389    8.3641990438   15.1301352235
 H    9.9260912020    8.4443031006   13.5979617957
 H    9.9676733956   12.2343175353   15.3887432128
 H   11.2969876268   12.2928163919   14.6030335518
 H   13.4327938505    8.7152337056   10.9139924329
 H   12.0977710738    8.7150422976   10.1354387688
 H   12.0747897734    8.6851927654   14.5538420935
 H   13.3747008107    8.7138608379   15.3956852126
 H    9.5509638347   11.9230467232   17.6237017390
 H    8.2262563686   11.9181317985   16.8521404827
 H    9.5658259696   12.0896006386   13.1066579087
 H    9.5770305488   12.1281679026   11.5574779751
 H    9.9768678983   12.3840824019    9.2917974155
 H   11.3189317520   12.3542920977   10.0609971097
 H    9.9278773851    8.4348732777   10.8643673781
 H   10.3904561948    7.1717564304   10.0983283445
 H   14.2675761287    7.1626781722   12.3542611292
 H   13.8363751212    8.4168241382   13.1482408534
 H   15.1868653077    8.5020414439   16.8324029237
 H   13.8944746339    8.5211729942   17.6636988958
 H   13.8190510075   12.4410019435   15.9739827178
 H   14.2547921043   13.7251604307   16.7310414497
 H    9.0816377397    9.7015304123   16.7976583584
 H    8.0550286082    8.5467173866   16.6981354238
 H    1.7602593221    8.7216931949   11.5130762787
 H    0.4242106215    8.7278119399   12.2952573399
 H    5.6296661768   12.1169005310   10.8803819567
 H    4.2964796420   12.1452723798   10.0922590876
 H    6.0775952774   12.3497604267   13.1352751211
 H    7.4072559613   12.3511028019   12.3428917161
 H    4.3275522742   12.1344166673   14.6107240370
 H    5.6682467011   12.1186277422   15.3869189819
 H    2.1721367476    8.4969768488   13.7563644517
 H    3.5119230916    8.5006155197   14.5277164971
 H    2.1829093340   12.3854507014   13.7904461977
 H    2.1570126628   12.3963211345   15.3361742506
 H    5.2015630491   10.0299849835   10.0460197861
 H    5.6597830155    8.7660702994    9.2793510303
 H    5.6206243801    8.7383779834   15.3428405815
 H    5.2200501020   10.0276060945   14.5864391525
 H    0.4185264029   12.1648247983   16.8023039587
 H    1.7540407017   12.1444457092   17.5868647222
 H    1.3585150657   10.8392641042   12.2930656236
 H    1.8055753311   12.1031966451   11.5229934723
 H    2.5900433042   13.6909232476   10.0619466767
 H    2.1545172905   12.4364788799    9.2753104190
 H    2.6398366660    7.1856303347   10.0587228305
 H    3.5328010602    8.4488672823   10.0718869733
 H    5.9887472737    8.4624527902   11.5328813599
 H    6.0002868067    8.4736337147   13.0800006907
 H    5.9853636565    8.3802987803   17.6043431891
 H    6.3884901548    7.1082940716   16.8126275108
 H    6.0759883028   12.3584630379   17.6165454765
 H    6.5484511332   13.6082506351   16.8456761037
 H    1.3345513402   10.0444989080   16.7771072793
 H    1.7854753522    8.7800068437   16.0116952113
