  384

 O    9.0738326336    1.6973866527   12.3035496949
 O   12.9590062890    4.5093990579   10.0438464755
 O   14.2579118286    5.3855670441   12.2978423787
 O   12.9349366853    4.4700879954   14.5178441894
 O   10.3812639316    0.7596724974   14.5328838977
 O   10.3386265931    5.3657670395   14.4165541120
 O   12.9888588608    1.7622925975   10.0628952992
 O   12.9468880308    1.7183752579   14.5409364191
 O    9.0538332355    4.4929900068   16.6166232599
 O    9.0164970553    4.4295278566   12.2396308158
 O   10.3568664301    5.3953226669   10.0587452460
 O   10.4022509030    0.8267929064   10.0855506992
 O   14.2743005827    0.8450537032   12.3069555848
 O   14.2682085967    0.8934739025   16.7994469704
 O   14.2247411078    5.4454723100   16.7648266042
 O    9.1111840607    1.7353093251   16.7488446616
 O    9.0822004683    9.1406882789    3.5141477586
 O   13.0542680816   11.9469507704    1.1251403984
 O   14.3002723048   12.8104896568    3.3906404584
 O   12.9464492806   11.8144052154    5.5679808192
 O   10.3830684537    8.1620099984    5.7122362863
 O   10.3592707039   12.7512500872    5.5881387737
 O   13.2683748554    9.2403161541    1.3049066960
 O   12.9776440697    9.0626797267    5.6219761809
 O    9.1089440960   11.8247272083    7.8439117672
 O    9.0586351624   11.8666715132    3.3598848328
 O   10.3929498769   12.6753720302    1.1039502695
 O   10.9069256638    7.3072392293   -0.3070854101
 O   14.4029678874    8.1462800851    3.4851407907
 O   14.2751330161    8.1775260816    7.8641971697
 O   14.2540681020   12.7212722397    7.7965814245
 O    9.0846539636    9.0895238251    7.9181474109
 O    1.3906288358    9.1132455604    3.3917742680
 O    5.2063026295   11.7777926010    1.1114350832
 O    6.4599946649   12.7579869120    3.3494067796
 O    5.2234418688   11.8237782090    5.6084227194
 O    2.6363284447    8.1703064524    5.6413687787
 O    2.6356052317   12.7408248048    5.5898164629
 O    5.2074151549    9.0284766135    1.1084302570
 O    5.2126062453    9.0858455342    5.6319497080
 O    1.3201891713   11.8418294200    7.8247583164
 O    1.3435802759   11.8491983211    3.3450864733
 O    2.6257963895   12.7178404700    1.0854653990
 O    2.6024243375    8.1723944498    1.1244557842
 O    6.4859494158    8.1988837233    3.3801720708
 O    6.5106359575    8.1503250570    7.8503429257
 O    6.5158251199   12.7274199907    7.8543075449
 O    1.3171331254    9.0981029573    7.8591562338
 O    1.3530789604    1.7703098801    3.3477438884
 O    5.1652673652    4.5190900656    1.1049191369
 O    6.4150942817    5.4715526365    3.3652921369
 O    5.1443396232    4.5360256290    5.5966881243
 O    2.6290192366    0.8741730183    5.6035576080
 O    2.5448888855    5.4288309593    5.5710572966
 O    5.2172945474    1.7776728413    1.0921692653
 O    5.2103611383    1.7910755997    5.5997498799
 O    1.2754043863    4.5161453841    7.8179545100
 O    1.2597194249    4.5103687919    3.3205989746
 O    2.5833333254    5.4322549448    1.0895632591
 O    2.6346957638    0.8521270705    1.0949416787
 O    6.5053489751    0.9076453640    3.3484326332
 O    6.4884185398    0.8680966952    7.8494114086
 O    6.4826565572    5.4087498441    7.8366707044
 O    1.3199755294    1.7759781794    7.8374924416
 O    9.1067949955    1.8393999295    3.2952337376
 O   12.7944831083    4.6362626668    1.0032869461
 O   14.1735195511    5.4144179167    3.2738158319
 O   12.9348478574    4.5449800447    5.5697630223
 O   10.3712132783    0.9089792814    5.5551124826
 O   10.3468663094    5.4438527538    5.6173011980
 O   12.9676412460    1.8428182229    1.0978424101
 O   12.9626546378    1.8077244233    5.6004531564
 O    9.0639395958    4.4793195596    7.8317778969
 O    9.0265232925    4.5831990526    3.3365268917
 O   10.2305752758    5.3874310179    0.8476400332
 O   10.3922345275    0.8448213025    1.0721439052
 O   14.2739714372    0.9474510892    3.3511103070
 O   14.2715588639    0.8557549937    7.8139475784
 O   14.2364079833    5.4482725313    7.8078580615
 O    9.0914945958    1.7430369764    7.8437482172
 O    1.3136374510    1.7931583066   12.3425143289
 O    5.1922384658    4.4699855061   10.0645924457
 O    6.4517042132    5.3814470342   12.3306357925
 O    5.1404816168    4.4612652484   14.5693863314
 O    2.6217254804    0.8626234453   14.5710287637
 O    2.5760723527    5.4290539661   14.5587964960
 O    5.1743831611    1.7338384120   10.0953860478
 O    5.2170655316    1.7216433681   14.5678507297
 O    1.2798231853    4.5363886862   16.7933407787
 O    1.3250695396    4.5324018324   12.3034904925
 O    2.6079674338    5.4070035530   10.0402589048
 O    2.5782015542    0.8633809118   10.0927447968
 O    6.4866143779    0.8047915014   12.3198821090
 O    6.5235135987    0.8019759570   16.8158734239
 O    6.4682396983    5.3346696810   16.7744390108
 O    1.3235071092    1.7907093705   16.8094620355
 O    9.0284977025    9.0640130965   12.2316074987
 O   13.0016495641   11.7814816364   10.0583746766
 O   14.2960004069   12.6990697942   12.3067659318
 O   12.9912613589   11.7669186395   14.5364204522
 O   10.3834518851    8.0950234133   14.3683696560
 O   10.3868881658   12.6085885936   14.6086971541
 O   13.0011336744    9.0502149226   10.1196162421
 O   12.9782003780    9.0213023678   14.5753924295
 O    9.1159121057   11.5525090005   16.8515317040
 O    9.0950081932   11.7936038837   12.3204102789
 O   10.4179031252   12.6943861228   10.0889817071
 O   10.4263995286    8.1347050435   10.0951129260
 O   14.2880947963    8.1258650673   12.3475552165
 O   14.2754417415    8.1883369722   16.8554157414
 O   14.2775469893   12.7619021964   16.7576120748
 O    8.9947241080    8.7617523024   16.6264840706
 O    1.3264658727    9.0657747536   12.3011353905
 O    5.1981986044   11.8070389846   10.0766385271
 O    6.4991913322   12.6715086631   12.3309427307
 O    5.2291088035   11.7971414084   14.5914077421
 O    2.6063276214    8.1725272904   14.5523618663
 O    2.6379733471   12.7237277556   14.5690279201
 O    5.1901472317    9.0668578300   10.0641272337
 O    5.1924587953    9.0658613345   14.5443365161
 O    1.3173729342   11.8193870753   16.7925958299
 O    1.3600301931   11.8022911638   12.3216523474
 O    2.6173492017   12.7277353706   10.0677683569
 O    2.6173621190    8.1485637905   10.0764534198
 O    6.4589150552    8.1313078531   12.3047252826
 O    6.4019174957    8.0729503492   16.7933846009
 O    6.5465144761   12.6450373719   16.8276003149
 O    1.3301135204    9.0818746711   16.8055328274
 H    9.5559258584    1.3824011761   11.5311559858
 H    9.5438240671    1.3629139543   13.0749001656
 H   12.0507296532    4.8290141893   10.0299214578
 H   13.3872309574    4.8544459006    9.2536335448
 H   13.7865895044    5.0401655561   13.0651815529
 H   13.7867560311    5.0713526149   11.5193918008
 H   12.0156146058    4.7582895992   14.4898067264
 H   12.9215637356    3.5084180232   14.5369063508
 H   11.2972997161    1.0581432879   14.5400638600
 H   10.3979669362   14.4007428520   14.5722552899
 H    9.8758821795    5.0549508445   13.6325500191
 H   10.3572446086    6.3282479585   14.3714050505
 H   13.4399289010    1.4630200581    9.2666453329
 H   12.9853491088    2.7250089995   10.0341832516
 H   13.4301094951    1.4038328314   13.7699993955
 H   13.4316658552    1.4227763821   15.3181403898
 H    9.4674653433    4.8384214588   15.8190052857
 H    8.1457875178    4.8051213575   16.6459132041
 H    8.1025215127    4.7302387257   12.2719950138
 H    9.0050252599    3.4668967772   12.2657495970
 H    9.8793166334    5.0463518417   10.8198214741
 H    9.8928167271    5.0713602766    9.2794408851
 H   11.3129378657    1.1395327911   10.0748633529
 H   10.4385869505   14.4663616987   10.0840282111
 H   15.1713856190    1.1951392178   12.3019927681
 H   13.8426548888    1.1786888955   11.5133293267
 H   15.1737655283    1.2212754332   16.8206355277
 H   13.8322677831    1.2323662876   17.5883393316
 H   13.7607623356    5.1498549640   15.9755285580
 H   14.2066391804    6.4070125731   16.7637873007
 H    9.5548661887    1.4036802164   15.9617122077
 H    9.1099131596    2.6975640104   16.6798311492
 H    9.0827183474   10.1085583737    3.4517343120
 H    9.6450963932    8.8264616325    2.8264863926
 H   13.4838960420   12.2300376853    0.3081504363
 H   13.1673989446   10.9958393115    1.1692269238
 H   13.8434717211   12.5190391289    2.5948374355
 H   13.8097218403   12.4577484820    4.1394651289
 H   12.9311573238   10.8528487505    5.5763107976
 H   12.0312778774   12.1135713046    5.5723918532
 H    9.9109016448    8.5202007272    4.9597430189
 H    9.9198058590    8.4898556040    6.4947131873
 H   10.3627935627   13.7148634302    5.5649205811
 H    9.8945271015   12.4634625878    4.7964751649
 H   13.7498477038    8.8757049727    2.0629201574
 H   12.3683801549    9.0127927685    1.4629853070
 H   13.4092333378    8.7572651741    6.4298563604
 H   12.0761302359    8.7290761408    5.6520657129
 H    9.5311196068   12.1565821470    7.0447776812
 H    8.2039408455   12.1552129626    7.8362150070
 H    8.1534551556   12.1999648519    3.3193147528
 H    9.5061086897   12.1608355576    2.5577804915
 H   10.4015723392   13.6397117935    1.0732818516
 H   11.3154464263   12.4053031058    1.1153296047
 H   10.0512821490    7.6404191754   -0.5710135789
 H   10.9865416363    7.5643926779    0.5951062200
 H   13.8898288287    8.4386447574    4.2470160020
 H   14.3099001361    7.1870562576    3.4280178736
 H   15.1789972293    8.5116919762    7.8772551979
 H   13.8504822106    8.4932993474    8.6701793684
 H   13.7765682587   12.3933350891    7.0281196323
 H   13.8012338551   12.3780471001    8.5743617853
 H    9.1058102486   10.0527418286    7.9214901753
 H    9.5617584065    8.7892709522    8.7009935053
 H    1.8504798189    8.7974950132    4.1775955270
 H    0.5015454152    8.7491486543    3.4504336920
 H    5.2262023397   10.8154265624    1.1329748763
 H    5.6492912440   12.0904366860    1.9064191294
 H    6.0234269180   12.4548853098    4.1528902024
 H    6.4501832097   13.7213898159    3.3702034848
 H    5.2329090009   10.8610202226    5.6322278255
 H    5.6768200772   12.1235051670    6.4040133203
 H    2.1638906465    8.4716991583    6.4248850305
 H    2.5870533080    7.2081565420    5.6352262474
 H    2.2078025549   12.4199364642    4.7889562349
 H    3.5371921331   12.4030417648    5.5811328379
 H    4.2966841195    8.7156675347    1.1404632549
 H    5.6404270934    8.7176338610    1.9087679186
 H    5.6565593922    8.7445046773    6.4163289130
 H    4.3084424974    8.7527652133    5.6613141066
 H    1.7607801261   12.1645684971    7.0317212102
 H    0.4116317142   12.1589607604    7.7904545107
 H    1.3164650427   10.8866500721    3.3614512816
 H    0.4326536247   12.1598011086    3.3650104536
 H    3.5253199946   12.3748555834    1.1056717973
 H    2.1903098511   12.4008139347    1.8833640889
 H    2.1501666767    8.5149349454    1.9020092572
 H    2.1418734201    8.5148105884    0.3509213159
 H    7.3856611186    8.5237660819    3.4055148646
 H    6.0518539616    8.5232036658    4.1782680776
 H    6.5307538706    7.1867541537    7.8504105588
 H    7.4243544408    8.4518278923    7.8776964820
 H    6.0500598767   12.4285129536    8.6431150160
 H    6.4923624662   13.6905378923    7.8692865543
 H    1.7809289168    8.7988526825    8.6489318273
 H    1.3343606489   10.0609896408    7.8675388663
 H    1.8199419189    1.4291622633    2.5777285074
 H    1.8206399596    1.4483720223    4.1255643225
 H    5.5881671147    4.8639743826    1.8974152430
 H    4.2619756110    4.8524702890    1.1063394761
 H    7.3273700898    5.1615530023    3.3650705904
 H    6.4548471234    6.4325461179    3.3678694760
 H    5.6042774865    4.8845116700    4.8247996643
 H    5.6199205216    4.8581614892    6.3694293089
 H    2.6518696278   14.5134728925    5.6042366155
 H    3.5448159984    1.1729092791    5.6031818866
 H    3.4486856177    5.0960008873    5.5578641446
 H    2.1126407975    5.1018087002    4.7745396330
 H    5.1738528187    2.7401694810    1.0964913383
 H    4.3074988494    1.4623612272    1.0914503648
 H    5.2006316563    2.7540858987    5.5789069083
 H    5.6727483847    1.5044761489    4.8048625549
 H    1.6993486074    4.8474590725    7.0191461774
 H    0.3709632677    4.8478260080    7.8061615343
 H    1.7232905288    4.8168436109    2.5341130649
 H    1.3073706480    3.5485219462    3.3091064109
 H    2.5703136775    6.3947167784    1.0838451275
 H    2.1211612494    5.1441082390    0.2944240165
 H    2.1716422400    1.1608173317    0.3089938232
 H    2.6234579569   14.4918607928    1.0662513975
 H    6.0652361754    1.2269388645    2.5524625932
 H    7.4109022861    1.2334141212    3.3122378655
 H    6.0076711242    1.1896038741    8.6198164532
 H    6.0296536859    1.2053109288    7.0728147358
 H    7.3806959540    5.0608994707    7.8476155698
 H    6.0481719298    5.0706775011    8.6274967607
 H    1.7863268185    1.4793250081    7.0486064184
 H    1.3087386779    2.7386831132    7.8077672412
 H    9.5641985929    1.5161133944    4.0772309830
 H    9.5696938079    1.4772131991    2.5319081525
 H   13.2371654123    4.9592392670    1.7880290106
 H   13.3065300001    4.9372644075    0.2468005381
 H   15.0693853336    5.0625357816    3.2844829356
 H   13.7432896707    5.0888977319    4.0710018730
 H   12.0179561725    4.8375291676    5.5809817879
 H   12.9192402283    3.5816736642    5.5922315210
 H    9.9350094708    1.2130337495    6.3575867908
 H   11.2773004737    1.2334467334    5.5917443266
 H    9.8826884279    5.1779347281    4.8164294643
 H   10.3474545593    6.4056589284    5.6359927491
 H   13.4276658797    1.5684182846    1.8965179570
 H   12.9248079652    2.8047838700    1.1061444279
 H   13.4378463937    1.4991760700    4.8210910957
 H   13.4366654162    1.4656405385    6.3658793742
 H    9.5176194357    4.7908253603    7.0420019074
 H    9.0927360993    3.5165949091    7.8131922375
 H    9.4457111122    4.9293662541    2.5397829764
 H    9.0847229484    3.6229181811    3.2698866034
 H   11.1737438230    5.2214558008    0.7999675283
 H    9.8732833910    5.1296620705   -0.0126928452
 H   11.2893453722    1.1938026891    1.0610217260
 H    9.9645973923    1.1721647658    0.2724583445
 H   15.1954351306    1.2281773738    3.3497157357
 H   14.2874122391   14.5874526912    3.3651415005
 H   14.2834904838   14.4949904494    7.8121743563
 H   15.1892183342    1.1479679075    7.8203140991
 H   14.2423805102    6.4113369296    7.8030310105
 H   13.7778996585    5.1626860788    7.0104350943
 H    9.5306812151    1.4065078523    8.6316430626
 H    8.1834903397    1.4234411150    7.8697522816
 H    1.3337888498    2.7559927558   12.3585018031
 H    1.7776911970    1.4889818331   13.1297475394
 H    5.1989061464    3.5071177289   10.0963889857
 H    5.6281649853    4.7749308658   10.8676231854
 H    5.9876433538    5.0905810720   13.1225170628
 H    6.4483531281    6.3443080534   12.3421833917
 H    5.1297723266    3.4985127212   14.5632260243
 H    4.2261043670    4.7624294750   14.5679066973
 H    3.5439486483    1.1415075175   14.5715796970
 H    2.6300881173   14.5015508800   14.5701526417
 H    2.5900241555    6.3919678827   14.5404039357
 H    2.1315111853    5.1444729772   13.7528690891
 H    5.6132350292    1.3892426093   10.8807066674
 H    4.2653155986    1.4161949851   10.1190254571
 H    5.6896586785    1.3922079127   15.3394910813
 H    5.6830634471    1.3909406708   13.7924645772
 H    0.3709581900    4.8570303635   16.7686221278
 H    1.7100527769    4.8673856973   15.9973698429
 H    0.4137054659    4.8439733446   12.2755944853
 H    1.7568716069    4.8488095894   11.5033362805
 H    3.5048455702    5.0567985417   10.0250395667
 H    2.1639635542    5.0821940864    9.2498852939
 H    2.1213023726    1.2032237090    9.3158580183
 H    2.1107513366    1.1996591410   10.8649064947
 H    6.5097145475   14.4438523885   12.3229640416
 H    7.4037592509    1.1001912783   12.3066530015
 H    7.4255457198    1.1408747610   16.8229724604
 H    6.0871243881    1.1567336416   17.5969634672
 H    6.0174907031    5.0183684184   17.5631614163
 H    5.9734614309    5.0067308429   16.0160322623
 H    1.3234683282    2.7538727767   16.7844360972
 H    1.7797609718    1.4907049875   16.0164140813
 H    8.1124184869    8.7668421712   12.2570651350
 H    9.0205514889   10.0265231045   12.2582332545
 H   13.4614807764   12.0925476636   10.8455778645
 H   13.0133044082   10.8187583895   10.0980054198
 H   14.3085299000   13.6621980371   12.3076289085
 H   15.2147542665   12.4105619582   12.3099784522
 H   13.4451271214   12.0653314764   13.7414440623
 H   13.0074192335   10.8035215946   14.5268774164
 H    9.8578581037    8.3659417027   15.1282502971
 H    9.9270375015    8.4438795769   13.5969415011
 H    9.9677276708   12.2348185257   15.3891823787
 H   11.2969959229   12.2929887018   14.6031095474
 H   13.4327106325    8.7151857853   10.9139930929
 H   12.0977655951    8.7150496081   10.1351677147
 H   12.0751888212    8.6853208523   14.5531268205
 H   13.3760075867    8.7145314349   15.3960084843
 H    9.5511675166   11.9196916466   17.6239677806
 H    8.2263972342   11.9177895373   16.8525859115
 H    9.5658963311   12.0896600556   13.1065253461
 H    9.5770296471   12.1280002804   11.5572294186
 H    9.9767023957   12.3842485446    9.2916307328
 H   11.3187708092   12.3543580600   10.0608722700
 H    9.9277881547    8.4346711707   10.8643181566
 H   10.3903811060    7.1716800696   10.0980453287
 H   14.2675915746    7.1626467360   12.3541269561
 H   13.8366004365    8.4168393091   13.1483050120
 H   15.1853364108    8.5012238709   16.8316792817
 H   13.8964559875    8.5224604885   17.6669729976
 H   13.8188955856   12.4410890476   15.9737630472
 H   14.2547999415   13.7251259896   16.7304849610
 H    9.0860756276    9.6973878806   16.8013073170
 H    8.0616927442    8.5430126131   16.7004090590
 H    1.7603413363    8.7217661346   11.5129437575
 H    0.4242564441    8.7279773606   12.2950190745
 H    5.6295178941   12.1169697775   10.8803358944
 H    4.2963304044   12.1451998132   10.0922176391
 H    6.0776454920   12.3497756508   13.1352875530
 H    7.4072942727   12.3510813535   12.3428130827
 H    4.3275365464   12.1342546334   14.6107204916
 H    5.6681548981   12.1185312571   15.3870473990
 H    2.1720692935    8.4970208870   13.7562379346
 H    3.5117632934    8.5007532706   14.5276323595
 H    2.1830005140   12.3855416814   13.7904595969
 H    2.1570135142   12.3964654587   15.3362734380
 H    5.2015303503   10.0298006921   10.0459510547
 H    5.6599319795    8.7659282758    9.2793323525
 H    5.6203683074    8.7388320919   15.3431358919
 H    5.2197953660   10.0277492016   14.5864640938
 H    0.4184988471   12.1644583729   16.8023664833
 H    1.7539281113   12.1441307571   17.5869621774
 H    1.3585601940   10.8393102077   12.2929316923
 H    1.8055485723   12.1032002455   11.5227760736
 H    2.5900169927   13.6908114848   10.0617845012
 H    2.1544312777   12.4363937159    9.2752096787
 H    2.6398911119    7.1856754144   10.0585404470
 H    3.5328891477    8.4489067002   10.0717062407
 H    5.9890240664    8.4623529657   11.5325897040
 H    6.0000835212    8.4737712450   13.0797614552
 H    5.9864904622    8.3811157093   17.6046674403
 H    6.3879461493    7.1091585282   16.8128521598
 H    6.0761808475   12.3581701588   17.6169445866
 H    6.5481886839   13.6079335955   16.8458050993
 H    1.3342151265   10.0443208184   16.7776283141
 H    1.7856177117    8.7804124864   16.0115985708
