  384

 O    9.0717767229    1.7516103002   12.3139358824
 O   12.9759944379    4.5126849658   10.0647071312
 O   14.2725815174    5.4056320127   12.3134023574
 O   12.9693431275    4.4913753670   14.5470107047
 O   10.3680852632    0.8342308142   14.5460511527
 O   10.3823241441    5.4041968802   14.5244191338
 O   12.9658900153    1.7676239973   10.0707149521
 O   12.9491796655    1.7464970130   14.5605486588
 O    9.0931142945    4.4983583518   16.7548655759
 O    9.0752839054    4.4898499824   12.2926861981
 O   10.3822816830    5.4150055172   10.0704715797
 O   10.3738296897    0.8477453635   10.0821381745
 O   14.2529598516    0.8516807230   12.3161475716
 O   14.2481603364    0.8586180193   16.8075267240
 O   14.2661554075    5.4206020243   16.7899310995
 O    9.0879263518    1.7571387221   16.7944017133
 O    9.1010187643    9.0785041267    3.3593773290
 O   12.9887208200   11.8312180047    1.0988171027
 O   14.2775730271   12.7356934170    3.3469610018
 O   12.9663366258   11.8067695017    5.5725388439
 O   10.3789383811    8.1595612367    5.6112068060
 O   10.3744089638   12.7202574669    5.5777720373
 O   13.0289046680    9.1106447589    1.1384825228
 O   12.9741165818    9.0584812976    5.5831642501
 O    9.1016419054   11.8066654314    7.8216086078
 O    9.0859286722   11.8136669977    3.3342449236
 O   10.3833380457   12.7045558853    1.0978008721
 O   10.4693261591    8.1033518336    0.9320636066
 O   14.2893161902    8.1559326107    3.3615357396
 O   14.2681686668    8.1639030274    7.8258627822
 O   14.2647948168   12.7203474824    7.8112188831
 O    9.0871487624    9.0719415522    7.8438558715
 O    1.3283474071    9.0777799663    3.3421887172
 O    5.2100216508   11.7908563908    1.0808087244
 O    6.4914356251   12.7157152178    3.3275673546
 O    5.2110420886   11.8049536428    5.5749579229
 O    2.6061756658    8.1617372546    5.5931578322
 O    2.6211786148   12.7215555320    5.5769943807
 O    5.2091651826    9.0451060832    1.0820450145
 O    5.1981324201    9.0634766316    5.5793003636
 O    1.3253831273   11.8176491588    7.8224563069
 O    1.3347305274   11.8178819421    3.3282939173
 O    2.6247901632   12.7160207209    1.0819140444
 O    2.6127206735    8.1584445362    1.0982911571
 O    6.4917188735    8.1619922237    3.3393403861
 O    6.4965990672    8.1527097606    7.8121100235
 O    6.5096707268   12.7155250788    7.8180890792
 O    1.3145239315    9.0742479271    7.8406415104
 O    1.3169283696    1.7599451117    3.3447883104
 O    5.1993471308    4.5053232356    1.0943752060
 O    6.4833473780    5.4222218500    3.3440080008
 O    5.1885048259    4.5156580491    5.5796770896
 O    2.6068254284    0.8615532115    5.5914214432
 O    2.5972386226    5.4221654193    5.5783256700
 O    5.2010334141    1.7671632779    1.0894692610
 O    5.1903841211    1.7714761616    5.5813463359
 O    1.3140566545    4.5100432409    7.8229411428
 O    1.3164157652    4.5006806453    3.3390674038
 O    2.6143246949    5.4138250428    1.0959475274
 O    2.6112538128    0.8512719218    1.0987056882
 O    6.4812695033    0.8587756935    3.3389294143
 O    6.4824071955    0.8589882316    7.8272024725
 O    6.5029125972    5.4126652042    7.8213147369
 O    1.3134187253    1.7674022454    7.8371939282
 O    9.0741190458    1.7685196119    3.3349926825
 O   12.9477064844    4.5309190134    1.0813431225
 O   14.2571789714    5.4171339940    3.3299204658
 O   12.9660582629    4.5175558082    5.5783211421
 O   10.3747047111    0.8643580295    5.5828772177
 O   10.3756654565    5.4195052656    5.5856394439
 O   12.9539748282    1.7837945019    1.1042197890
 O   12.9594651731    1.7817822715    5.5959321680
 O    9.0909273013    4.4983477188    7.8296866966
 O    9.0779250909    4.5213893253    3.3329658561
 O   10.3641768312    5.3965872867    1.0535421997
 O   10.3720087102    0.8469311422    1.0961955454
 O   14.2555756979    0.8770993204    3.3534052472
 O   14.2592308471    0.8567411821    7.8239051840
 O   14.2637074012    5.4286459397    7.8188187267
 O    9.0785021722    1.7610139668    7.8349686722
 O    1.3031607464    1.7741473576   12.3300963567
 O    5.2128133523    4.4935443009   10.0580301160
 O    6.4909215672    5.4061010238   12.3156699712
 O    5.1895412767    4.4874889044   14.5592906014
 O    2.6081489417    0.8527689980   14.5628514219
 O    2.6047687199    5.4119667283   14.5629899926
 O    5.1824463038    1.7544670757   10.0729743631
 O    5.1964171894    1.7459490321   14.5506102820
 O    1.3184065149    4.5096653260   16.8027333978
 O    1.3298827618    4.5145982166   12.3159820664
 O    2.6210228245    5.4093278072   10.0627598414
 O    2.5904910026    0.8569265287   10.0865867134
 O    6.4878854428    0.8413832204   12.3072725053
 O    6.4977554287    0.8406605294   16.7983789255
 O    6.5006850492    5.3922917737   16.7843609711
 O    1.3063674883    1.7657342409   16.8069207026
 O    9.0763954206    9.0632366220   12.2954746476
 O   12.9835941824   11.7957251130   10.0560028711
 O   14.2748945942   12.7079244544   12.3037593149
 O   12.9784211875   11.7918796935   14.5434679675
 O   10.3867848048    8.1404575033   14.5149766999
 O   10.3871952495   12.6909697771   14.5580631917
 O   12.9831423819    9.0594065076   10.0744962537
 O   12.9746181679    9.0489301497   14.5530698809
 O    9.0968697654   11.7530174364   16.8014776319
 O    9.0915378513   11.8035781157   12.3053989113
 O   10.3991152631   12.7095342646   10.0667937311
 O   10.3981141014    8.1563177308   10.0761728041
 O   14.2703371772    8.1481766802   12.3141332899
 O   14.2686925058    8.1577966165   16.8070184860
 O   14.2655143271   12.7230162181   16.7851646822
 O    9.0668459834    9.0009677405   16.7287416508
 O    1.3251704158    9.0622779154   12.3064875416
 O    5.2075327565   11.8085825651   10.0530888723
 O    6.5003791051   12.7004236221   12.3012606912
 O    5.2174224393   11.8044275612   14.5518138545
 O    2.6171853304    8.1587839584   14.5541094118
 O    2.6215980076   12.7126821022   14.5561554580
 O    5.1964678174    9.0687122256   10.0502314954
 O    5.2068535776    9.0660243900   14.5355485926
 O    1.3178176628   11.8075855149   16.7910408168
 O    1.3359035091   11.8022021237   12.3096425360
 O    2.6219732731   12.7182349593   10.0628628893
 O    2.6163257135    8.1521542169   10.0735856007
 O    6.4902607125    8.1536683096   12.2949350075
 O    6.4820280116    8.1360049165   16.7811584667
 O    6.5102537113   12.7000295916   16.7883492940
 O    1.3247051280    9.0692761097   16.7960225552
 H    9.5459406715    1.4240843783   11.5418237735
 H    9.5417153193    1.4203886474   13.0870239031
 H   12.0710034703    4.8415303624   10.0460453319
 H   13.4099109337    4.8497131909    9.2737108013
 H   13.8054659125    5.0659549732   13.0843806459
 H   13.8008478545    5.0821425052   11.5385781944
 H   12.0539492427    4.7905892753   14.5400852399
 H   12.9461167243    3.5287154635   14.5579247150
 H   11.2843967784    1.1313671473   14.5557923314
 H   10.3911234105   14.4735549616   14.5571687068
 H    9.9213687589    5.1042603426   13.7338112714
 H   10.3783172251    6.3675413170   14.4998267396
 H   13.4194134043    1.4680815983    9.2757761619
 H   12.9739334494    2.7304839226   10.0474475159
 H   13.4224195605    1.4222109947   13.7869182826
 H   13.4227915722    1.4258752678   15.3353164579
 H    9.5215963163    4.8380277818   15.9616953569
 H    8.1871351941    4.8246689056   16.7458454374
 H    8.1602978228    4.7900859890   12.3040152663
 H    9.0535456171    3.5268215691   12.3035679438
 H    9.9121513140    5.0763583278   10.8400900406
 H    9.9152232556    5.0845954331    9.2957075145
 H   11.2859974511    1.1560140530   10.0717039968
 H   10.4071773098   14.4871793819   10.0746276933
 H   15.1532981372    1.1933166853   12.3019288407
 H   13.8186604205    1.1837637436   11.5231066224
 H   15.1521737160    1.1898160223   16.8285213321
 H   13.8115730736    1.1904102801   17.5992611971
 H   13.8050793195    5.1185946404   16.0006374357
 H   14.2524752146    6.3835258036   16.7729867175
 H    9.5340919972    1.4462831510   15.9996719981
 H    9.0985946776    2.7197824218   16.7577678650
 H    9.1034097818   10.0427808499    3.3320237315
 H    9.5565362667    8.7787705521    2.5724066035
 H   13.4390944676   12.1254802999    0.3001380201
 H   13.0179065488   10.8676573385    1.0943114759
 H   13.8110179117   12.4134161122    2.5682091469
 H   13.8016225696   12.4010811330    4.1143486199
 H   12.9463928804   10.8441177618    5.5751358362
 H   12.0507700850   12.1050474446    5.5739212506
 H    9.9136211451    8.4983296572    4.8403028249
 H    9.9105998243    8.4888568521    6.3862508399
 H   10.3703589306   13.6833353732    5.5638072021
 H    9.9176334763   12.4294293717    4.7814844638
 H   13.4647542480    8.7631687714    1.9256264073
 H   12.1290320714    8.7690153917    1.1259894716
 H   13.4107938115    8.7410299233    6.3809744990
 H   12.0697283095    8.7292877361    5.6107100250
 H    9.5310260546   12.1362955542    7.0245741831
 H    8.1980593300   12.1396523671    7.8070060164
 H    8.1817200611   12.1446807651    3.3091947327
 H    9.5263960658   12.1414363187    2.5419325398
 H   10.4047181328   13.6675436469    1.0893858869
 H   11.3000954795   12.4086686253    1.0935574399
 H    9.9773075011    8.3304645687    0.1502841747
 H   10.4693293915    7.1475294397    0.9788111734
 H   13.8229572413    8.4518325419    4.1510087923
 H   14.2680162992    7.1927753764    3.3694992792
 H   15.1722796618    8.4963301465    7.8457627281
 H   13.8357904942    8.4885122352    8.6230964626
 H   13.7908409504   12.3900987096    7.0407055043
 H   13.8045685550   12.3825945030    8.5869790602
 H    9.1012645449   10.0352446789    7.8580785836
 H    9.5477891897    8.7739968097    8.6354173699
 H    1.7659500632    8.7522914006    4.1359609542
 H    0.4266799579    8.7394143363    3.3696846366
 H    5.2244082005   10.8280025375    1.0966065639
 H    5.6633996780   12.0898991952    1.8760111127
 H    6.0403109963   12.4138505020    4.1231837695
 H    6.4714327633   13.6784227821    3.3461261029
 H    5.2181232611   10.8420906397    5.5968378489
 H    5.6660255824   12.1038268692    6.3694616117
 H    2.1488843149    8.4600505127    6.3862556000
 H    2.5886751554    7.1986978520    5.6057019655
 H    2.1908110100   12.3963358488    4.7790679729
 H    3.5243277617   12.3878804941    5.5617174753
 H    4.3009045203    8.7253675541    1.1082611653
 H    5.6427187785    8.7197631903    1.8777797252
 H    5.6347717961    8.7260531594    6.3690253334
 H    4.2913969766    8.7390708031    5.6039246006
 H    1.7605462956   12.1405178494    7.0263043595
 H    0.4187696347   12.1413493793    7.7969378004
 H    1.3040525536   10.8550914055    3.3332136476
 H    0.4211744742   12.1228712586    3.3357809314
 H    3.5271625192   12.3801622717    1.0980960629
 H    2.1911178549   12.3872466511    1.8766554621
 H    2.1430347704    8.4913621504    1.8702605221
 H    2.1501541219    8.4943959593    0.3231022433
 H    7.3925203202    8.4971732661    3.3599167900
 H    6.0536374745    8.4873182251    4.1335302836
 H    6.5217525380    7.1895662354    7.8188469382
 H    7.4109175192    8.4541346414    7.8257133690
 H    6.0486204496   12.4179800532    8.6098155283
 H    6.4880083439   13.6783137714    7.8349329620
 H    1.7773279130    8.7754105813    8.6304490022
 H    1.3320217062   10.0371128878    7.8524186085
 H    1.7851268791    1.4237565596    2.5732988911
 H    1.7878458389    1.4361139751    4.1201778346
 H    5.6336600319    4.8363224993    1.8874780230
 H    4.2970346937    4.8421509887    1.1106668983
 H    7.3975524612    5.1187388834    3.3400279164
 H    6.5117232187    6.3846478486    3.3410710426
 H    5.6587392005    4.8504612949    4.8083517613
 H    5.6619087710    4.8390427939    6.3534080596
 H    2.6324562574   14.5008491185    5.5906771081
 H    3.5219077719    1.1624457505    5.5872307217
 H    3.5031152022    5.0952971753    5.5624966481
 H    2.1671227204    5.0876081013    4.7838203214
 H    5.1728697221    2.7301001502    1.0941799049
 H    4.2869660794    1.4635075101    1.0918114699
 H    5.2001759772    2.7344471894    5.5602198117
 H    5.6481756447    1.4739748673    4.7878661207
 H    1.7441454872    4.8411999307    7.0272852512
 H    0.4099257512    4.8419946228    7.8066269285
 H    1.7718689233    4.8020614815    2.5458309531
 H    1.3309708319    3.5377874384    3.3189691201
 H    2.5977417292    6.3765921917    1.0781833496
 H    2.1555866424    5.1158466551    0.3027775527
 H    2.1493825682    1.1512041308    0.3086780340
 H    2.6079553120   14.4904487899    1.0734178176
 H    6.0476230772    1.1881212073    2.5443768249
 H    7.3874992956    1.1840610265    3.3176718973
 H    6.0058625365    1.1847569443    8.5980172307
 H    6.0183165725    1.1912634409    7.0515987690
 H    7.4053092477    5.0765622074    7.8389751016
 H    6.0691963681    5.0796176220    8.6142807413
 H    1.7716581855    1.4663628147    7.0452737112
 H    1.3184207081    2.7301310589    7.8100148766
 H    9.5423615942    1.4445600053    4.1113073129
 H    9.5436713597    1.4298786045    2.5654036252
 H   13.4097658686    4.8632410700    1.8577578083
 H   13.4254700436    4.8562303240    0.3113278076
 H   15.1594950094    5.0815673615    3.3487262960
 H   13.8196129080    5.0834662954    4.1205065630
 H   12.0504543613    4.8161381815    5.5759808191
 H   12.9430180417    3.5544775249    5.5890078051
 H    9.9365579017    1.1859029996    6.3776058207
 H   11.2781326628    1.1971650914    5.6082867287
 H    9.9147483393    5.1291055762    4.7916268084
 H   10.3623089706    6.3824722910    5.5786214901
 H   13.4109322882    1.4886210013    1.8986726894
 H   12.9604727305    2.7467092313    1.1207983326
 H   13.4271393061    1.4540744485    4.8200704445
 H   13.4324240990    1.4466976099    6.3653199866
 H    9.5453621441    4.8001952660    7.0361737583
 H    9.1025644173    3.5354940252    7.8094588016
 H    9.5306883773    4.8145645517    2.5346397140
 H    9.0915572219    3.5587621482    3.3155739634
 H   11.2749786020    5.0874556756    1.0281714758
 H    9.9386039289    5.0819431818    0.2497536009
 H   11.2713666359    1.1906416058    1.0803099424
 H    9.9376034267    1.1758220201    0.3017195696
 H   15.1729126309    1.1705612412    3.3484097221
 H   14.2764152505   14.5162834741    3.3488573871
 H   14.2769129286   14.4956799132    7.8249819914
 H   15.1757563764    1.1519802023    7.8289633350
 H   14.2578573603    6.3918414630    7.8008001197
 H   13.8039097338    5.1312374385    7.0264401409
 H    9.5094530698    1.4272536926    8.6285697793
 H    8.1713273297    1.4383727658    7.8515914600
 H    1.3257800228    2.7367213277   12.3497202494
 H    1.7640460048    1.4683897442   13.1185743371
 H    5.2151686723    3.5306150760   10.0858303195
 H    5.6578051005    4.7953006209   10.8568516421
 H    6.0294502518    5.1134012039   13.1082824560
 H    6.4816408313    6.3691016541   12.3268501415
 H    5.1709128061    3.5245602566   14.5517120209
 H    4.2739811876    4.7856293510   14.5597604524
 H    3.5268972562    1.1418412729   14.5601411249
 H    2.6238278592   14.4917125642   14.5607298576
 H    2.6070770531    6.3748737100   14.5428345435
 H    2.1542069934    5.1213631308   13.7624794855
 H    5.6234336229    1.4166617763   10.8597070275
 H    4.2751035521    1.4325981257   10.1015767750
 H    5.6696634844    1.4209195688   15.3236448082
 H    5.6661867517    1.4171028822   13.7766945183
 H    0.4124635950    4.8361662600   16.7793573319
 H    1.7505906609    4.8401304085   16.0074983825
 H    0.4231532798    4.8389221807   12.2925916233
 H    1.7644472918    4.8359227633   11.5190228387
 H    3.5226301352    5.0714864452   10.0454522183
 H    2.1849932745    5.0830604642    9.2685200965
 H    2.1283098098    1.1931458183    9.3112387458
 H    2.1193159282    1.1872519377   10.8587638554
 H    6.5162195891   14.4807051730   12.3051659753
 H    7.4027196910    1.1435665031   12.3066345868
 H    7.4007421921    1.1743856152   16.8202890324
 H    6.0564868093    1.1799823422   17.5844242474
 H    6.0382785036    5.0655545512   17.5632031458
 H    6.0229401240    5.0574506835   16.0177191939
 H    1.3212593773    2.7285614360   16.7859976393
 H    1.7625204577    1.4647612729   16.0140954479
 H    8.1589148000    8.7699837794   12.2940438071
 H    9.0618845955   10.0262819732   12.2960529133
 H   13.4398807797   12.1015899796   10.8470286085
 H   12.9951994274   10.8328325465   10.0854459885
 H   14.2883636221   13.6709766266   12.3066798357
 H   15.1929040586   12.4172453484   12.3019698915
 H   13.4354127419   12.0904527550   13.7501465869
 H   12.9902133985   10.8291182362   14.5272679523
 H    9.9014020500    8.4584477515   15.2846918229
 H    9.9203707638    8.4778903634   13.7424082887
 H    9.9545713336   12.3520520077   15.3485297696
 H   11.2914582233   12.3597040297   14.5721333119
 H   13.4142907956    8.7241622137   10.8679555841
 H   12.0772401605    8.7317459255   10.0939224772
 H   12.0682000383    8.7228026757   14.5657007515
 H   13.4016926831    8.7289696121   15.3543636332
 H    9.5302213712   12.0909750624   17.5918068098
 H    8.1967077927   12.0942550046   16.8140151629
 H    9.5622399104   12.1262316074   13.0811232081
 H    9.5638402165   12.1328918097   11.5334901201
 H    9.9627031519   12.3879918007    9.2708428338
 H   11.3012862094   12.3726649526   10.0452452359
 H    9.9284761898    8.4538105090   10.8629071446
 H   10.3796013423    7.1932738735   10.0904482798
 H   14.2592034570    7.1852615273   12.3355694533
 H   13.8143252244    8.4459898485   13.1087132484
 H   15.1742960570    8.4863681747   16.8134590924
 H   13.8483741529    8.4898103571   17.6067171193
 H   13.8115251066   12.4191871985   15.9923146159
 H   14.2427295065   13.6857295786   16.7705404853
 H    9.0696003407    9.9613515770   16.7896795012
 H    8.1452277136    8.7199080838   16.7642586758
 H    1.7593793268    8.7237318912   11.5159175851
 H    0.4205049835    8.7324813661   12.2910222118
 H    5.6418999952   12.1276113530   10.8513185148
 H    4.3041584363   12.1424269968   10.0732127709
 H    6.0704917745   12.3733332049   13.0986686909
 H    7.4058637250   12.3726722579   12.3179941244
 H    4.3116047963   12.1306427773   14.5721863802
 H    5.6514002154   12.1387945044   15.3444340938
 H    2.1814994198    8.4844907394   13.7593619145
 H    3.5219916060    8.4877322916   14.5295819741
 H    2.1591518278   12.3789072304   13.7800593184
 H    2.1466361952   12.3842831783   15.3269277512
 H    5.2085916078   10.0316623739   10.0300050246
 H    5.6568230506    8.7677368255    9.2598245559
 H    5.6566791886    8.7556568374   15.3285899551
 H    5.2238061842   10.0286586222   14.5659056959
 H    0.4153055329   12.1431546062   16.8115399141
 H    1.7574856630   12.1344168519   17.5830964942
 H    1.3407825354   10.8392185625   12.2862614638
 H    1.7895528411   12.1009844074   11.5144345736
 H    2.5975563158   13.6811914238   10.0534969455
 H    2.1616214530   12.4242653915    9.2694547730
 H    2.6427748478    7.1893864394   10.0673162479
 H    3.5308755890    8.4548641542   10.0661030908
 H    6.0202125427    8.4809547168   11.5209576453
 H    6.0235010785    8.4889515989   13.0680372494
 H    6.0294264734    8.4297256619   17.5791500495
 H    6.4752920803    7.1727604734   16.7975582094
 H    6.0526331046   12.3978629544   17.5802133689
 H    6.4986205599   13.6629637570   16.8126183964
 H    1.3337987548   10.0321818798   16.7721644998
 H    1.7830914598    8.7683794957   16.0040478696
