  384

 O    9.0716273150    1.7359949471   12.3117433587
 O   12.9708348067    4.5114699691   10.0587523481
 O   14.2683549395    5.3994304113   12.3101972313
 O   12.9589813572    4.4856527239   14.5390156764
 O   10.3714574549    0.8133771455   14.5403010129
 O   10.3745431815    5.3954113897   14.4923144332
 O   12.9722132535    1.7661886630   10.0683987377
 O   12.9486203972    1.7380221948   14.5556531306
 O    9.0811502303    4.4931927870   16.7123464055
 O    9.0579285154    4.4729158220   12.2750375048
 O   10.3749876514    5.4096949578   10.0676777623
 O   10.3821678226    0.8421497535   10.0822599509
 O   14.2595131966    0.8492227756   12.3132955434
 O   14.2536565835    0.8687152712   16.8060282263
 O   14.2552491376    5.4291590827   16.7800932143
 O    9.0939934791    1.7528518561   16.7836521238
 O    9.1120521579    9.1014419203    3.3861091615
 O   13.0064170690   11.8649294958    1.1065256072
 O   14.2844646676   12.7562375743    3.3576999101
 O   12.9604408211   11.8087880702    5.5714787188
 O   10.3782179276    8.1608527343    5.6426567552
 O   10.3697121999   12.7308734496    5.5797401766
 O   13.0961222696    9.1703006288    1.1915673088
 O   12.9751373573    9.0575104267    5.5959681433
 O    9.1022339040   11.8099334794    7.8269679274
 O    9.0746700378   11.8139348707    3.3334688262
 O   10.3868279752   12.6976604035    1.1068059592
 O   10.6387089096    8.0432176398    0.7147878654
 O   14.3179482177    8.1517068447    3.3950181693
 O   14.2693233930    8.1700344925    7.8355415170
 O   14.2621438828   12.7206314636    7.8078622079
 O    9.0907722839    9.0758026932    7.8620598956
 O    1.3457647513    9.0873055725    3.3567472731
 O    5.2089565666   11.7872286984    1.0898955524
 O    6.4873407576   12.7281771040    3.3358260308
 O    5.2159451073   11.8099524131    5.5841691661
 O    2.6153915848    8.1641846900    5.6071377902
 O    2.6253704623   12.7268074973    5.5802242798
 O    5.2066143001    9.0408909237    1.0901528492
 O    5.2031422948    9.0674260421    5.5928844049
 O    1.3240766294   11.8243887354    7.8226958747
 O    1.3374017778   11.8271784864    3.3337096761
 O    2.6252161263   12.7170083299    1.0831128117
 O    2.6107425257    8.1634636264    1.1049946071
 O    6.4878122874    8.1733942632    3.3544018695
 O    6.5011820935    8.1516805748    7.8207204308
 O    6.5114993415   12.7188972855    7.8286544393
 O    1.3152961361    9.0807355609    7.8463057752
 O    1.3276701531    1.7632473486    3.3453273557
 O    5.1886415864    4.5080592557    1.0980921925
 O    6.4674328448    5.4330091012    3.3504436011
 O    5.1755936376    4.5217921914    5.5845569578
 O    2.6135401240    0.8652881412    5.5953332420
 O    2.5825213396    5.4244666325    5.5755222829
 O    5.2055984352    1.7699078501    1.0908716449
 O    5.1964963542    1.7767521892    5.5860907690
 O    1.3033196779    4.5120020165    7.8212157049
 O    1.3000489651    4.5031739648    3.3337463846
 O    2.6047949266    5.4186794825    1.0944444016
 O    2.6170163922    0.8519710854    1.0974781849
 O    6.4888510725    0.8717329892    3.3407939591
 O    6.4838351667    0.8613835574    7.8338668819
 O    6.4975169593    5.4124684459    7.8266308100
 O    1.3153879793    1.7699773936    7.8370448202
 O    9.0808203094    1.7853046465    3.3234687549
 O   12.9206845920    4.5506692884    1.0584746717
 O   14.2358923977    5.4206187322    3.3191858255
 O   12.9568930495    4.5243170832    5.5761899773
 O   10.3745831690    0.8742578632    5.5766540293
 O   10.3664110129    5.4226248142    5.5908533420
 O   12.9563244125    1.8006449285    1.1016560531
 O   12.9603209542    1.7896383078    5.5969779311
 O    9.0829692046    4.4919919973    7.8295390306
 O    9.0694266208    4.5455020269    3.3240212557
 O   10.3284387557    5.3644054263    1.0364126624
 O   10.3783107563    0.8442432442    1.0876268030
 O   14.2614458899    0.8965715671    3.3549443571
 O   14.2633196928    0.8567668371    7.8209187091
 O   14.2564814247    5.4346418138    7.8152884417
 O    9.0822698944    1.7556591513    7.8374683274
 O    1.3063260844    1.7798188401   12.3334710620
 O    5.2076790951    4.4867463280   10.0597062225
 O    6.4787108108    5.3988462477   12.3197387008
 O    5.1750836401    4.4797313870   14.5614359663
 O    2.6119642051    0.8559115736   14.5646603299
 O    2.5963248150    5.4168461632   14.5619400491
 O    5.1802817852    1.7483171724   10.0794590780
 O    5.2021915363    1.7383177488   14.5558807702
 O    1.3075328440    4.5172913497   16.8008706015
 O    1.3280299165    4.5201253728   12.3126792812
 O    2.6179433093    5.4088234259   10.0561546463
 O    2.5865852826    0.8583756343   10.0886114030
 O    6.4876014720    0.8312920795   12.3098942955
 O    6.5066052626    0.8298802212   16.8034168833
 O    6.4879537478    5.3805767946   16.7819225724
 O    1.3119421346    1.7726980858   16.8078491297
 O    9.0627090560    9.0633866106   12.2737791839
 O   12.9891984637   11.7913370896   10.0565104533
 O   14.2804685496   12.7054637812   12.3036420682
 O   12.9820612534   11.7837675706   14.5418384077
 O   10.3896216403    8.1259123049   14.4755821757
 O   10.3872181344   12.6673000441   14.5721294893
 O   12.9887530554    9.0554790138   10.0870921398
 O   12.9750828658    9.0396429403   14.5588300694
 O    9.1024037904   11.7008016236   16.8167657207
 O    9.0919703190   11.8018929048   12.3101905968
 O   10.4051185075   12.7055310444   10.0727586951
 O   10.4045302764    8.1507850295   10.0804472826
 O   14.2748977704    8.1422755339   12.3237928631
 O   14.2685917822    8.1651680197   16.8215256050
 O   14.2690436808   12.7347154908   16.7772324969
 O    9.0210137330    8.9425163959   16.6559752785
 O    1.3250212869    9.0635821609   12.3047082769
 O    5.2054159451   11.8087337034   10.0595393823
 O    6.4996415838   12.6913388565   12.3093452215
 O    5.2208002149   11.8029136773   14.5630792475
 O    2.6143760914    8.1628785558   14.5534276577
 O    2.6258608231   12.7159598024   14.5597790559
 O    5.1941337653    9.0688624891   10.0534523194
 O    5.2027468874    9.0661947054   14.5370979847
 O    1.3171032149   11.8113159335   16.7910894002
 O    1.3427191186   11.8021352265   12.3134698102
 O    2.6213881619   12.7209579774   10.0642516952
 O    2.6164303202    8.1507474524   10.0735898902
 O    6.4809175639    8.1468829196   12.2981232173
 O    6.4510118790    8.1161554734   16.7834791983
 O    6.5197800800   12.6857006363   16.7990633568
 O    1.3279106932    9.0728236556   16.7992855220
 H    9.5482843586    1.4122805919   11.5394851604
 H    9.5419728713    1.4042732120   13.0843334048
 H   12.0650388701    4.8381005838   10.0414997851
 H   13.4034009415    4.8511598999    9.2682064058
 H   13.7996131038    5.0589463814   13.0799719708
 H   13.7965483699    5.0787643368   11.5343185531
 H   12.0426425009    4.7822228737   14.5251390707
 H   12.9384112525    3.5230801058   14.5522925588
 H   11.2875168488    1.1111643980   14.5508214502
 H   10.3932637749   14.4529381199   14.5605818501
 H    9.9107312624    5.0926591535   13.7045511871
 H   10.3739812015    6.3590728668   14.4630264404
 H   13.4254244629    1.4671133453    9.2730717180
 H   12.9770434106    2.7290124931   10.0440016578
 H   13.4248290123    1.4161053743   13.7828447827
 H   13.4253108824    1.4241722110   15.3312517616
 H    9.5055699151    4.8363717694   15.9182044159
 H    8.1751356961    4.8183743429   16.7132319368
 H    8.1430708576    4.7730341717   12.2939894714
 H    9.0392061638    3.5099287500   12.2923349103
 H    9.9026470224    5.0681792836   10.8348149061
 H    9.9085842513    5.0809242077    9.2918390231
 H   11.2939616258    1.1516204710   10.0727936892
 H   10.4164911042   14.4815651141   10.0775664341
 H   15.1587474557    1.1937973562   12.3016848214
 H   13.8255963275    1.1819042488   11.5203321838
 H   15.1581730396    1.1986703862   16.8270752854
 H   13.8169348414    1.2027062225   17.5965532004
 H   13.7927523479    5.1273514358   15.9917328379
 H   14.2398809293    6.3921031157   16.7683327864
 H    9.5390743986    1.4361838864   15.9905314657
 H    9.1013718048    2.7150507612   16.7377086766
 H    9.1033207767   10.0683165301    3.3534961467
 H    9.5738305914    8.8093117528    2.6072311972
 H   13.4507357308   12.1557138269    0.3033674198
 H   13.0574269666   10.9011623781    1.1181107023
 H   13.8196928280   12.4421209602    2.5738841612
 H   13.8040563688   12.4171051231    4.1199596770
 H   12.9416276435   10.8463199213    5.5762759682
 H   12.0451754276   12.1073088606    5.5739701236
 H    9.9118112094    8.5065434403    4.8771303951
 H    9.9144484107    8.4895934930    6.4216818695
 H   10.3689947974   13.6940770714    5.5640085862
 H    9.9112365763   12.4402085046    4.7849587446
 H   13.5141084589    8.7939673163    1.9740942338
 H   12.2146517766    8.7965316698    1.1128429967
 H   13.4128445020    8.7458040622    6.3957408545
 H   12.0713669036    8.7279916968    5.6279184168
 H    9.5303170014   12.1425212082    7.0306658326
 H    8.1988996754   12.1440155620    7.8153678884
 H    8.1736510032   12.1547086396    3.3119340040
 H    9.5211170276   12.1452295229    2.5452291955
 H   10.4033915963   13.6603669179    1.0858926736
 H   11.3062810524   12.4091996612    1.0999200390
 H   10.0620444183    8.2322986282   -0.0321019841
 H   10.5645465734    7.0979989541    0.8610137517
 H   13.8441700227    8.4457863763    4.1806091525
 H   14.2826483694    7.1887567115    3.3897790492
 H   15.1737746134    8.5016250916    7.8543017896
 H   13.8393683843    8.4904730833    8.6359609318
 H   13.7871621881   12.3913368916    7.0375874046
 H   13.8038893891   12.3811140534    8.5839794623
 H    9.1037387973   10.0391954153    7.8751896357
 H    9.5525524286    8.7767656832    8.6530901271
 H    1.7889697171    8.7642151656    4.1483530604
 H    0.4466350861    8.7421727383    3.3912635188
 H    5.2241105628   10.8244789586    1.1072177686
 H    5.6600064381   12.0895916869    1.8848359129
 H    6.0365852543   12.4266761165    4.1318497052
 H    6.4674952335   13.6909547643    3.3521257766
 H    5.2223778104   10.8472174175    5.6072789291
 H    5.6695317928   12.1092068778    6.3794096932
 H    2.1535004982    8.4632235859    6.3974483054
 H    2.5885716258    7.2013027566    5.6140161629
 H    2.1955647412   12.4030763298    4.7812012485
 H    3.5281572118   12.3924368215    5.5664350344
 H    4.2974560134    8.7229792928    1.1161396573
 H    5.6387284799    8.7181475140    1.8872070599
 H    5.6407383809    8.7302664051    6.3823808830
 H    4.2964123789    8.7424159302    5.6187295521
 H    1.7605607058   12.1477275806    7.0274650116
 H    0.4170350609   12.1467656605    7.7953539488
 H    1.3071839948   10.8643435620    3.3409284531
 H    0.4242671920   12.1335898676    3.3434020279
 H    3.5267190345   12.3790623146    1.1002443599
 H    2.1910344976   12.3912626071    1.8788103129
 H    2.1447695755    8.4986735179    1.8783734341
 H    2.1485188078    8.5006666339    0.3300329532
 H    7.3878379412    8.5058636249    3.3768691111
 H    6.0501332999    8.4976843987    4.1500273898
 H    6.5245505686    7.1883908887    7.8274419983
 H    7.4154275960    8.4526657307    7.8399419439
 H    6.0493360537   12.4209652017    8.6196917028
 H    6.4891462412   13.6817166546    7.8447870943
 H    1.7782822845    8.7815947229    8.6360285220
 H    1.3326367136   10.0436290651    7.8571932705
 H    1.7950008040    1.4254552495    2.5740427999
 H    1.7975195109    1.4395592856    4.1213255191
 H    5.6202900440    4.8426540508    1.8908186298
 H    4.2859937836    4.8444731735    1.1105826015
 H    7.3816945561    5.1299813122    3.3439857110
 H    6.4967793479    6.3952243521    3.3490739089
 H    5.6439778774    4.8589337654    4.8131871098
 H    5.6500360675    4.8443627719    6.3579470580
 H    2.6381036904   14.5045035367    5.5946965201
 H    3.5288420447    1.1653157507    5.5917408032
 H    3.4876046563    5.0954676093    5.5611350700
 H    2.1518100045    5.0914998633    4.7806883446
 H    5.1734858604    2.7326434209    1.0948540122
 H    4.2923794732    1.4635319455    1.0917702442
 H    5.2001537561    2.7397090061    5.5653073126
 H    5.6554611980    1.4824945916    4.7920758567
 H    1.7314101001    4.8433518230    7.0245792410
 H    0.3990602071    4.8438513492    7.8063529571
 H    1.7575598770    4.8059159449    2.5422682526
 H    1.3239576417    3.5404133329    3.3162448958
 H    2.5897356322    6.3815158937    1.0793140034
 H    2.1456349291    5.1230794319    0.3006221160
 H    2.1549000917    1.1542393789    0.3085349630
 H    2.6114704766   14.4911496184    1.0712772781
 H    6.0527651255    1.1990615803    2.5465631377
 H    7.3948403215    1.1973638634    3.3154822291
 H    6.0063567797    1.1858887261    8.6047447988
 H    6.0213579408    1.1953770240    7.0580831687
 H    7.3982878298    5.0719325036    7.8419201080
 H    6.0631496490    5.0774763421    8.6185573845
 H    1.7759545899    1.4702417923    7.0459208028
 H    1.3158721039    2.7327120081    7.8092981313
 H    9.5486868658    1.4627865888    4.1004264120
 H    9.5507955737    1.4446063494    2.5549858565
 H   13.3743705813    4.8869469505    1.8374648377
 H   13.4029693823    4.8767274897    0.2912799390
 H   15.1356104837    5.0782325302    3.3323787573
 H   13.7997990304    5.0844625250    4.1094756971
 H   12.0405445491    4.8202206870    5.5770980868
 H   12.9370115013    3.5611173301    5.5900132346
 H    9.9364171253    1.1927924020    6.3725865838
 H   11.2780980960    1.2066730486    5.6037942486
 H    9.9061138690    5.1415048391    4.7933844946
 H   10.3556217354    6.3856233859    5.5940315196
 H   13.4150721365    1.5122850809    1.8974821499
 H   12.9507767820    2.7632844715    1.1145236334
 H   13.4301179441    1.4670938383    4.8200656875
 H   13.4337254333    1.4522135692    6.3650891454
 H    9.5375762287    4.7954296589    7.0368687511
 H    9.0995231994    3.5290974982    7.8107281503
 H    9.5108899854    4.8306683172    2.5161799061
 H    9.0860959516    3.5830805849    3.3092917358
 H   11.2452574915    5.0752081855    0.9932781725
 H    9.9079774254    5.0861361016    0.2163337309
 H   11.2761592141    1.1915827947    1.0748580726
 H    9.9444396627    1.1756540820    0.2939684307
 H   15.1797899642    1.1867304564    3.3491622629
 H   14.2806574199   14.5355739460    3.3535499796
 H   14.2793396883   14.4957078562    7.8216983584
 H   15.1801956627    1.1510482484    7.8264497602
 H   14.2532651037    6.3978813279    7.8005367666
 H   13.7967156904    5.1400857819    7.0218543691
 H    9.5157447867    1.4212580643    8.6294826836
 H    8.1747633443    1.4341173992    7.8569820939
 H    1.3278313142    2.7424320193   12.3523983922
 H    1.7677806272    1.4743092660   13.1217282998
 H    5.2111396826    3.5238346062   10.0887881014
 H    5.6494864212    4.7896406458   10.8599475818
 H    6.0173762240    5.1066457077   13.1125608871
 H    6.4723080832    6.3619047932   12.3316566996
 H    5.1588216866    3.5168295484   14.5546620301
 H    4.2596964225    4.7786334542   14.5618129495
 H    3.5317149628    1.1418766776   14.5632383514
 H    2.6254692761   14.4947560328   14.5632076473
 H    2.6019457269    6.3798536939   14.5422730788
 H    2.1471302869    5.1279813496   13.7600163537
 H    5.6208503525    1.4088824365   10.8658260545
 H    4.2724119061    1.4277466450   10.1069578172
 H    5.6759821904    1.4126434208   15.3282773940
 H    5.6708970858    1.4095679719   13.7812481240
 H    0.4010958434    4.8420725297   16.7762730417
 H    1.7393926227    4.8475687529   16.0053271006
 H    0.4199850644    4.8408485529   12.2882700374
 H    1.7618131181    4.8402558798   11.5148401741
 H    3.5181245780    5.0672513229   10.0396181832
 H    2.1796577269    5.0827808006    9.2630282948
 H    2.1260796548    1.1956500960    9.3126996985
 H    2.1165799427    1.1907068263   10.8606845439
 H    6.5144181344   14.4704966606   12.3101156659
 H    7.4031223087    1.1315089257   12.3067556846
 H    7.4089303569    1.1657791095   16.8210729692
 H    6.0661555531    1.1735840036   17.5877894644
 H    6.0306631188    5.0524011842   17.5629825856
 H    6.0079209279    5.0447808901   16.0169476375
 H    1.3220579431    2.7355220076   16.7857642486
 H    1.7676782030    1.4720669043   16.0146296922
 H    8.1456426169    8.7688963517   12.2832235469
 H    9.0494216964   10.0263377603   12.2850460402
 H   13.4461429743   12.0992737091   10.8464176630
 H   13.0008459695   10.8285385792   10.0892159338
 H   14.2938516401   13.6685010649   12.3071596364
 H   15.1986786029   12.4153922913   12.3044895747
 H   13.4378507837   12.0822703988   13.7479743590
 H   12.9945785441   10.8209862760   14.5273317840
 H    9.8883743352    8.4294723086   15.2422113838
 H    9.9240575142    8.4672061716   13.7048434319
 H    9.9580985183   12.3180427765   15.3598893567
 H   11.2931760177   12.3404780950   14.5808718706
 H   13.4198761511    8.7213229903   10.8811962154
 H   12.0831758408    8.7268980028   10.1058868703
 H   12.0686445740    8.7126476278   14.5614667972
 H   13.3942531653    8.7249823494   15.3661021053
 H    9.5359099789   12.0477899478   17.6024123041
 H    8.2050104786   12.0480481876   16.8249906800
 H    9.5631906130   12.1161835720   13.0890974611
 H    9.5674885047   12.1322898087   11.5408883988
 H    9.9670640299   12.3864838004    9.2768495072
 H   11.3067577271   12.3672368765   10.0494629781
 H    9.9278116876    8.4494817940   10.8630426372
 H   10.3825218704    7.1877821445   10.0929286598
 H   14.2616609648    7.1793484759   12.3410607652
 H   13.8200803378    8.4380031738   13.1200977287
 H   15.1752333528    8.4911554863   16.8220370987
 H   13.8604200023    8.5035979299   17.6235891002
 H   13.8132282212   12.4253898789   15.9877084543
 H   14.2454734023   13.6972418959   16.7594521233
 H    9.0561812040    9.8948188573   16.7783126937
 H    8.0942683841    8.6833192805   16.7211704177
 H    1.7590296533    8.7232216048   11.5148601637
 H    0.4211477920    8.7313254060   12.2922848767
 H    5.6387907428   12.1246873045   10.8596261807
 H    4.3023871714   12.1436874253   10.0783995816
 H    6.0722599376   12.3662844714   13.1090427303
 H    7.4061538970   12.3663390903   12.3251336585
 H    4.3161247182   12.1320666055   14.5832570403
 H    5.6563471146   12.1337982720   15.3564896299
 H    2.1790359401    8.4883753226   13.7584297975
 H    3.5193887648    8.4916398934   14.5288081071
 H    2.1657204536   12.3806575954   13.7829523276
 H    2.1490963416   12.3877253856   15.3295746881
 H    5.2066497825   10.0318574248   10.0341568568
 H    5.6573244558    8.7679822997    9.2647594628
 H    5.6462743339    8.7501717677   15.3316146864
 H    5.2234566254   10.0285926405   14.5712216555
 H    0.4153535022   12.1493125424   16.8091529568
 H    1.7558314085   12.1373595481   17.5838838043
 H    1.3456407741   10.8391507730   12.2885550427
 H    1.7943215262   12.1013644916   11.5173123880
 H    2.5955998121   13.6839222414   10.0561908274
 H    2.1599643270   12.4277339805    9.2712155086
 H    2.6419191590    7.1879518060   10.0647353760
 H    3.5311976814    8.4529591164   10.0676383292
 H    6.0107369200    8.4757124746   11.5249714698
 H    6.0169709502    8.4845700120   13.0720413858
 H    6.0109354273    8.4137172347   17.5869007123
 H    6.4488304200    7.1526621585   16.8018344138
 H    6.0583268792   12.3878581858   17.5901906575
 H    6.5127132328   13.6485338324   16.8218692696
 H    1.3346386997   10.0356710515   16.7732072294
 H    1.7842441512    8.7713381211   16.0063662824
