  384

 O    9.0709613487    1.7015243465   12.3073950027
 O   12.9586055620    4.5079131488   10.0464961374
 O   14.2586656594    5.3868740060   12.3040557203
 O   12.9376286383    4.4740479951   14.5189893176
 O   10.3782700204    0.7684071191   14.5291940162
 O   10.3618613235    5.3760804782   14.4186913825
 O   12.9858791155    1.7633460236   10.0641481360
 O   12.9464272734    1.7178945893   14.5455983638
 O    9.0459009058    4.4748375811   16.6255675500
 O    9.0193534763    4.4363508509   12.2342700415
 O   10.3595670102    5.3985489052   10.0613583741
 O   10.3996774273    0.8301704087   10.0817590082
 O   14.2739418766    0.8430744892   12.3071469906
 O   14.2650596471    0.8894045460   16.8043720989
 O   14.2354974776    5.4462680011   16.7536377524
 O    9.1067243191    1.7456848194   16.7628896191
 O    9.1041491936    9.1651179571    3.4783997125
 O   13.0468448774   11.9440625244    1.1179503600
 O   14.3009276455   12.8017184888    3.3830455490
 O   12.9470831435   11.8135849267    5.5676891365
 O   10.3789010560    8.1661869589    5.7125200775
 O   10.3609330303   12.7540280247    5.5841974976
 O   13.2387833397    9.2588890291    1.2962023271
 O   12.9790305634    9.0554596309    5.6255859574
 O    9.1037939011   11.8180627226    7.8397525679
 O    9.0546554450   11.8308780065    3.3370530048
 O   10.3956243146   12.6868697306    1.1224436414
 O   11.0620356043    7.8186747026    0.0283986267
 O   14.3659073384    8.1449216089    3.4653281932
 O   14.2729444740    8.1840353389    7.8560856680
 O   14.2570280348   12.7210418246    7.8025971582
 O    9.0966163367    9.0831251414    7.9061129288
 O    1.3815885968    9.1073641929    3.3898058842
 O    5.2068662601   11.7804548249    1.1103158946
 O    6.4814719344   12.7536807354    3.3526234321
 O    5.2260723053   11.8222009561    5.6045487483
 O    2.6341990100    8.1695794582    5.6361800582
 O    2.6352822053   12.7387597084    5.5888904126
 O    5.1999700642    9.0345585698    1.1102709549
 O    5.2122612871    9.0782071125    5.6245026388
 O    1.3219866156   11.8377654460    7.8239621462
 O    1.3444864188   11.8480043397    3.3455531430
 O    2.6262725732   12.7188752787    1.0846656014
 O    2.6069532004    8.1740606012    1.1175937985
 O    6.4797937605    8.1972792416    3.3888129430
 O    6.5113092858    8.1493046382    7.8407640837
 O    6.5153516692   12.7265762101    7.8513054287
 O    1.3170023185    9.0939688847    7.8581772446
 O    1.3505578670    1.7717405151    3.3468829307
 O    5.1648610972    4.5118727788    1.1079391606
 O    6.4390022623    5.4515634057    3.3626979174
 O    5.1475256278    4.5349901141    5.5948675339
 O    2.6287162027    0.8743787198    5.6025850586
 O    2.5507262971    5.4309035276    5.5689824792
 O    5.2160613826    1.7750074996    1.0931091533
 O    5.2103840312    1.7889113663    5.5957208655
 O    1.2803780408    4.5156682059    7.8165008711
 O    1.2643395130    4.5091439037    3.3219606958
 O    2.5817094640    5.4282832585    1.0913882997
 O    2.6281439198    0.8546911732    1.0953004261
 O    6.5038985751    0.8974713699    3.3447759135
 O    6.4870431649    0.8658881335    7.8483202696
 O    6.4851041885    5.4114338060    7.8379109776
 O    1.3192252139    1.7753908369    7.8370810624
 O    9.0924909529    1.8163861404    3.3015491088
 O   12.8666102800    4.5892406450    1.0199960818
 O   14.1974016907    5.4352603379    3.3027521909
 O   12.9356987810    4.5389149321    5.5707200915
 O   10.3762604639    0.8939154705    5.5645872684
 O   10.3432135492    5.4261132493    5.5930832814
 O   12.9576593228    1.8395565075    1.0930114551
 O   12.9622893815    1.8077710706    5.5994257124
 O    9.0664459068    4.4786848670    7.8280069070
 O    9.0408939500    4.5878127562    3.3136658175
 O   10.2253882635    5.3285253041    1.0212023105
 O   10.3890927628    0.8398275682    1.0685206281
 O   14.2751695226    0.9433870096    3.3579453487
 O   14.2715859664    0.8576550967    7.8136046450
 O   14.2399913577    5.4479219701    7.8072105984
 O    9.0904708293    1.7444972407    7.8423154198
 O    1.3135881100    1.7917979444   12.3401908106
 O    5.1952712584    4.4727623282   10.0635338140
 O    6.4506167761    5.3828388815   12.3276707173
 O    5.1435787472    4.4621417124   14.5641263728
 O    2.6203392986    0.8627754679   14.5689434404
 O    2.5785183740    5.4267451275   14.5595963129
 O    5.1761199959    1.7351187744   10.0929546062
 O    5.2146845135    1.7212579597   14.5679686325
 O    1.2830398881    4.5334267442   16.7974002487
 O    1.3225380854    4.5310269863   12.3059429572
 O    2.6112352373    5.4080822672   10.0426009690
 O    2.5787804904    0.8616378587   10.0937298475
 O    6.4866611416    0.8090569668   12.3165722655
 O    6.5275873338    0.8067867685   16.8136168088
 O    6.4548706948    5.3559008145   16.7750753926
 O    1.3235332254    1.7885471922   16.8102318495
 O    9.0328083906    9.0639823906   12.2291949858
 O   13.0022850523   11.7818841166   10.0582171680
 O   14.2917247360   12.6994926385   12.3038661949
 O   12.9915203977   11.7658577093   14.5414292850
 O   10.3883293696    8.0995731352   14.3917845812
 O   10.3879526713   12.6133891639   14.6002170644
 O   13.0003112547    9.0467780991   10.1139400341
 O   12.9728587356    9.0213399375   14.5704092548
 O    9.1114516316   11.5997368282   16.8475184341
 O    9.0925377079   11.7972891949   12.3207752815
 O   10.4188340423   12.6960369218   10.0864660073
 O   10.4191894413    8.1381630386   10.0900915534
 O   14.2839030345    8.1287683367   12.3446650679
 O   14.2830646582    8.1830315126   16.8363182180
 O   14.2728359583   12.7601954947   16.7639976837
 O    8.9530072302    8.8300247475   16.5605082491
 O    1.3246692474    9.0658237617   12.3017916811
 O    5.2018586162   11.8089770321   10.0734696564
 O    6.4977247822   12.6718161257   12.3268047080
 O    5.2283073515   11.7997726163   14.5870416853
 O    2.6077990181    8.1720461915   14.5540294296
 O    2.6355751742   12.7224083402   14.5677022732
 O    5.1879265763    9.0694021621   10.0607541258
 O    5.1930076962    9.0649138292   14.5385961149
 O    1.3155946169   11.8203658969   16.7918465089
 O    1.3562834201   11.8020404882   12.3218745713
 O    2.6202985038   12.7272213851   10.0680995330
 O    2.6158422395    8.1480156030   10.0733702759
 O    6.4615677999    8.1327340094   12.3055433283
 O    6.3761609135    8.0734680703   16.7848203462
 O    6.5431173712   12.6555630316   16.8226682849
 O    1.3389126908    9.0820506885   16.8079330369
 H    9.5529090750    1.3861019534   11.5349677902
 H    9.5422144537    1.3688746854   13.0789915153
 H   12.0511334817    4.8298580949   10.0326862056
 H   13.3879399656    4.8538088500    9.2571105852
 H   13.7868120517    5.0444953271   13.0718125263
 H   13.7868665079    5.0714621102   11.5264134291
 H   12.0198996233    4.7671124228   14.4920680536
 H   12.9208640211    3.5121466629   14.5389195428
 H   11.2940718139    1.0673687179   14.5389077146
 H   10.3978521697   14.4089659701   14.5656942602
 H    9.8937186139    5.0714568866   13.6343892548
 H   10.3725866256    6.3396944536   14.3825568284
 H   13.4379540180    1.4659519081    9.2675559227
 H   12.9829640737    2.7261299256   10.0375354501
 H   13.4299726467    1.4019748840   13.7750839436
 H   13.4297730893    1.4200953556   15.3231185224
 H    9.4767228365    4.8265138354   15.8379969799
 H    8.1405362391    4.7999670901   16.6306421448
 H    8.1048745968    4.7357450159   12.2693043922
 H    9.0077695446    3.4737204370   12.2663495125
 H    9.8817293161    5.0500559292   10.8222361619
 H    9.8956356612    5.0739675478    9.2823094310
 H   11.3104966483    1.1427838522   10.0737420538
 H   10.4367692619   14.4696710633   10.0820669138
 H   15.1708860890    1.1935445570   12.3009509324
 H   13.8408504183    1.1776352338   11.5146148088
 H   15.1702760216    1.2175764360   16.8255208239
 H   13.8267500603    1.2300191214   17.5909398777
 H   13.7655424440    5.1449287982   15.9699792213
 H   14.2113623021    6.4091796304   16.7518359814
 H    9.5481590127    1.4162778479   15.9734338409
 H    9.1012782387    2.7071219588   16.6935172038
 H    9.0923958101   10.1345037172    3.4150022035
 H    9.5771634238    8.8584738786    2.7195313366
 H   13.4756633809   12.2288666523    0.3033254844
 H   13.1505967192   10.9868425417    1.1615475963
 H   13.8400732255   12.5105729674    2.5879002138
 H   13.8098383649   12.4512447011    4.1326984641
 H   12.9300027388   10.8515792468    5.5794289188
 H   12.0324374029   12.1133256365    5.5734015760
 H    9.9057481879    8.5340346949    4.9637414836
 H    9.9265478578    8.4905587776    6.5019890033
 H   10.3668040837   13.7176934571    5.5647874597
 H    9.8974473786   12.4655032279    4.7927682070
 H   13.6364437204    8.8508738831    2.0769565501
 H   12.3797592457    8.8687490634    1.1622184036
 H   13.4207510930    8.7570476627    6.4291879514
 H   12.0767039124    8.7238666373    5.6687201458
 H    9.5276967585   12.1559482336    7.0439924846
 H    8.2001457408   12.1520761418    7.8341933141
 H    8.1530130702   12.1731073214    3.3143691511
 H    9.5072978821   12.1564783521    2.5490099794
 H   10.3972429673   13.6492348858    1.0818205485
 H   11.3211991484   12.4194262165    1.1172230558
 H   10.2908952433    8.0024554407   -0.5126160150
 H   10.8359630080    7.0457613987    0.5351945999
 H   13.8804925375    8.4312833638    4.2469611363
 H   14.3085272619    7.1825692486    3.4312583599
 H   15.1777208192    8.5151147302    7.8734535836
 H   13.8462422513    8.4961795520    8.6619650015
 H   13.7793946445   12.3941518468    7.0332341224
 H   13.8033430415   12.3776537132    8.5797243040
 H    9.1110817401   10.0464379841    7.9128890600
 H    9.5648725713    8.7824252695    8.6937615391
 H    1.8369431635    8.7891692505    4.1768178157
 H    0.4891467096    8.7485083255    3.4387932628
 H    5.2220727261   10.8177439881    1.1317304411
 H    5.6537160103   12.0891476223    1.9045115172
 H    6.0345835278   12.4547742353    4.1518444082
 H    6.4663875920   13.7169425922    3.3653041853
 H    5.2322716445   10.8596623911    5.6298399715
 H    5.6768818265   12.1219022500    6.4014251368
 H    2.1646170725    8.4702123192    6.4216328597
 H    2.5886622860    7.2073850551    5.6312871439
 H    2.2069846248   12.4184656812    4.7875152635
 H    3.5373335718   12.4026627141    5.5782704955
 H    4.2890166626    8.7204344380    1.1347215038
 H    5.6289422607    8.7170901335    1.9104525846
 H    5.6548790959    8.7379121206    6.4102001162
 H    4.3070444332    8.7483403053    5.6523132554
 H    1.7615026682   12.1616498129    7.0306699695
 H    0.4140994040   12.1573198136    7.7924475063
 H    1.3152970920   10.8854088382    3.3599214696
 H    0.4325199249   12.1576389774    3.3614044997
 H    3.5263037800   12.3774767578    1.1044939173
 H    2.1917007570   12.4005545813    1.8830327446
 H    2.1505878100    8.5152265786    1.8937220796
 H    2.1466477836    8.5157699592    0.3430692417
 H    7.3764335564    8.5328043707    3.4222068882
 H    6.0384083297    8.5172465093    4.1853377708
 H    6.5304917110    7.1857530926    7.8460966958
 H    7.4255446808    8.4488910852    7.8695998547
 H    6.0514224725   12.4277087357    8.6411409713
 H    6.4916728004   13.6895496819    7.8662138029
 H    1.7801361325    8.7936137794    8.6477377137
 H    1.3346774189   10.0568842062    7.8675756506
 H    1.8155590334    1.4311498823    2.5753995633
 H    1.8192169043    1.4482936115    4.1235457793
 H    5.5925376891    4.8534170670    1.8995118647
 H    4.2617066742    4.8470860190    1.1136770650
 H    7.3553849765    5.1525499154    3.3483125834
 H    6.4675866962    6.4130402749    3.3674689945
 H    5.6155171703    4.8737979084    4.8239472394
 H    5.6228138424    4.8562801974    6.3681223903
 H    2.6514235669   14.5134999267    5.6036641632
 H    3.5445248892    1.1727281995    5.6007860077
 H    3.4542728241    5.0978201095    5.5571781962
 H    2.1190307632    5.1016128261    4.7732338770
 H    5.1758283035    2.7373934400    1.0971793071
 H    4.3046144143    1.4636224576    1.0922239509
 H    5.2005657973    2.7517629153    5.5759102810
 H    5.6720592720    1.5016645600    4.8007148954
 H    1.7041734657    4.8479255543    7.0180162364
 H    0.3760006566    4.8475197908    7.8050069460
 H    1.7248503318    4.8146563552    2.5332588257
 H    1.3073367058    3.5469524746    3.3101450532
 H    2.5716193357    6.3910416774    1.0808146364
 H    2.1211732280    5.1378854297    0.2961662013
 H    2.1661290686    1.1620792990    0.3082566035
 H    2.6184392117   14.4940995358    1.0666690029
 H    6.0633711423    1.2203084591    2.5508439998
 H    7.4099452990    1.2226563561    3.3109205098
 H    6.0071876656    1.1872576608    8.6192597763
 H    6.0282057595    1.2037100116    7.0721690100
 H    7.3828892909    5.0629664579    7.8478865679
 H    6.0505123385    5.0731328797    8.6284831504
 H    1.7853325662    1.4788715984    7.0479299791
 H    1.3099831659    2.7380818964    7.8081745287
 H    9.5606558881    1.4928556873    4.0772378835
 H    9.5610218527    1.4751726916    2.5327082556
 H   13.3197644106    4.9295309812    1.7959172034
 H   13.3491991666    4.9149358952    0.2517591689
 H   15.0915862492    5.0787738750    3.3079200943
 H   13.7609453394    5.0950191934    4.0912629164
 H   12.0170927213    4.8273774515    5.5761246705
 H   12.9241510173    3.5754941975    5.5914346397
 H    9.9377775564    1.2049593267    6.3632540964
 H   11.2802406437    1.2247493560    5.5965260465
 H    9.8869951605    5.1685376899    4.7849676490
 H   10.3371087863    6.3880326379    5.6236410149
 H   13.4202440060    1.5671237955    1.8912368100
 H   12.9331660852    2.8021804824    1.0949142096
 H   13.4375506950    1.4976866653    4.8203974910
 H   13.4365726883    1.4658141776    6.3649105015
 H    9.5174109266    4.7821297050    7.0335408715
 H    9.0915264393    3.5157950654    7.8141766866
 H    9.4599939480    4.8561246306    2.4841880606
 H    9.0635822035    3.6267082008    3.3099099499
 H   11.1441142869    5.0466542749    0.9768623861
 H    9.8066441100    5.0650204243    0.1948071320
 H   11.2853969830    1.1907239592    1.0599573185
 H    9.9575980500    1.1735378105    0.2744174083
 H   15.1960272536    1.2257731422    3.3529670296
 H   14.2910520781   14.5825489690    3.3664502802
 H   14.2843941225   14.4967116770    7.8150339937
 H   15.1891911344    1.1500378688    7.8203103008
 H   14.2431102649    6.4110196143    7.7990798330
 H   13.7797601481    5.1594942325    7.0118292785
 H    9.5295173503    1.4089357253    8.6308416325
 H    8.1824587440    1.4250186207    7.8683941342
 H    1.3320156811    2.7545643195   12.3574269912
 H    1.7765637378    1.4873509914   13.1279333881
 H    5.2018204787    3.5099196435   10.0950573712
 H    5.6300289990    4.7781088648   10.8669166455
 H    5.9895109343    5.0905124027   13.1206285033
 H    6.4501357979    6.3458350330   12.3421971602
 H    5.1328363663    3.4992701190   14.5601119609
 H    4.2284558964    4.7623015461   14.5635247657
 H    3.5423644387    1.1416538214   14.5704445754
 H    2.6288777181   14.5015394404   14.5683433434
 H    2.5907804506    6.3898459251   14.5417285456
 H    2.1309349421    5.1420627373   13.7552390196
 H    5.6158916318    1.3923438880   10.8784646275
 H    4.2671883274    1.4172133462   10.1184131312
 H    5.6899002888    1.3944423228   15.3389460089
 H    5.6810092612    1.3924858333   13.7918663753
 H    0.3753667475    4.8559037232   16.7675607856
 H    1.7159231909    4.8630465974   16.0023599289
 H    0.4116038613    4.8439262618   12.2799131807
 H    1.7543642333    4.8491525502   11.5064159657
 H    3.5084638209    5.0587760401   10.0279013242
 H    2.1686979667    5.0827416032    9.2516134751
 H    2.1214581192    1.2011515270    9.3169473085
 H    2.1115037661    1.1980987710   10.8658227447
 H    6.5099078456   14.4480903628   12.3201974256
 H    7.4037890770    1.1047028968   12.3075792414
 H    7.4281491273    1.1483871756   16.8220932286
 H    6.0887531267    1.1590386264   17.5945429231
 H    6.0089673096    5.0283885293   17.5626540648
 H    5.9649988102    5.0218346073   16.0153894409
 H    1.3234474069    2.7514904423   16.7861435238
 H    1.7790470210    1.4889919356   16.0165140847
 H    8.1170475347    8.7660959656   12.2578289110
 H    9.0222593239   10.0264983083   12.2591582261
 H   13.4606044141   12.0943640082   10.8457571149
 H   13.0139368278   10.8193363677   10.0981430107
 H   14.3051505747   13.6625433349   12.3069980378
 H   15.2102879578   12.4105689476   12.3090709777
 H   13.4437768820   12.0642163224   13.7458370481
 H   13.0043988824   10.8026795506   14.5299206000
 H    9.8572551132    8.3725554271   15.1486568953
 H    9.9287100099    8.4474159327   13.6207225633
 H    9.9662892482   12.2457812012   15.3830192210
 H   11.2975532371   12.2962388389   14.5991538314
 H   13.4318783247    8.7136543500   10.9087596829
 H   12.0958485642    8.7152382658   10.1313900503
 H   12.0682351042    8.6910292273   14.5544512563
 H   13.3766629287    8.7134614042   15.3883358677
 H    9.5469158354   11.9608104097   17.6242187369
 H    8.2197914172   11.9591894778   16.8498854266
 H    9.5647439836   12.0929204258   13.1064867570
 H    9.5751022235   12.1308450841   11.5575207144
 H    9.9772179336   12.3819913039    9.2908210441
 H   11.3195010743   12.3552844342   10.0593604923
 H    9.9248107484    8.4401254401   10.8611662836
 H   10.3875108767    7.1752344004   10.0978116732
 H   14.2662826464    7.1657759242   12.3538588841
 H   13.8306216656    8.4206039325   13.1439428058
 H   15.1911450653    8.5031207197   16.8337651459
 H   13.8878933807    8.5194869604   17.6414109779
 H   13.8163201833   12.4391997046   15.9796003558
 H   14.2502590514   13.7226784185   16.7383218168
 H    9.0201468881    9.7693304328   16.7384248165
 H    8.0247156333    8.5896138755   16.6570504664
 H    1.7577888415    8.7218465237   11.5131717410
 H    0.4225147646    8.7283262099   12.2962538266
 H    5.6330943528   12.1177683464   10.8776608272
 H    4.2997632206   12.1466503801   10.0898257439
 H    6.0752539924   12.3505983573   13.1308859775
 H    7.4062705313   12.3524607286   12.3406031610
 H    4.3259734643   12.1351454747   14.6071104877
 H    5.6673522107   12.1233760864   15.3815873446
 H    2.1733058216    8.4966746846   13.7581781029
 H    3.5133693562    8.4999480168   14.5282786691
 H    2.1799593961   12.3840861082   13.7895131994
 H    2.1548741296   12.3949137509   15.3353842107
 H    5.2014798491   10.0324390979   10.0434642923
 H    5.6573660859    8.7688561296    9.2757712577
 H    5.6169813813    8.7348453100   15.3386544005
 H    5.2223434180   10.0266078017   14.5825929475
 H    0.4157973659   12.1633565382   16.8052482111
 H    1.7529548855   12.1445383039   17.5860240116
 H    1.3555977163   10.8390737213   12.2938311442
 H    1.8040890364   12.1024974306   11.5241346809
 H    2.5916900371   13.6902149035   10.0624980788
 H    2.1575123731   12.4354367828    9.2754410848
 H    2.6399085817    7.1851646043   10.0589154095
 H    3.5308771449    8.4497475132   10.0703006264
 H    5.9899400960    8.4642595452   11.5345793782
 H    6.0037131291    8.4749847462   13.0815028435
 H    5.9646457808    8.3776980978   17.6003084169
 H    6.3822529150    7.1095780710   16.8079495464
 H    6.0725398492   12.3667652991   17.6113898564
 H    6.5454629190   13.6182186148   16.8418434587
 H    1.3390905327   10.0445513665   16.7756764650
 H    1.7882687280    8.7777613617   16.0120392036
